
---------- Begin Simulation Statistics ----------
simSeconds                                   0.007425                       # Number of seconds simulated (Second)
simTicks                                   7425054500                       # Number of ticks simulated (Tick)
finalTick                                  7425054500                       # Number of ticks from beginning of simulation (restored from checkpoints and never reset) (Tick)
simFreq                                  1000000000000                       # The number of ticks per simulated second ((Tick/Second))
hostSeconds                                     38.93                       # Real time elapsed on the host (Second)
hostTickRate                                190705252                       # The number of ticks simulated per host second (ticks/s) ((Tick/Second))
hostMemory                                    8735088                       # Number of bytes of host memory used (Byte)
simInsts                                      9622812                       # Number of instructions simulated (Count)
simOps                                       10989188                       # Number of ops (including micro ops) simulated (Count)
hostInstRate                                   247150                       # Simulator instruction rate (inst/s) ((Count/Second))
hostOpRate                                     282244                       # Simulator op (including micro ops) rate (op/s) ((Count/Second))
system.clk_domain.clock                          1000                       # Clock period in ticks (Tick)
system.cpu.numCycles                         14850109                       # Number of cpu cycles simulated (Cycle)
system.cpu.numWorkItemsStarted                      0                       # Number of work items this cpu started (Count)
system.cpu.numWorkItemsCompleted                    0                       # Number of work items this cpu completed (Count)
system.cpu.numInsts                           9622812                       # Number of instructions committed (Count)
system.cpu.numOps                            10989188                       # Number of ops (including micro ops) committed (Count)
system.cpu.numDiscardedOps                      80847                       # Number of ops (including micro ops) which were discarded before commit (Count)
system.cpu.numFetchSuspends                         0                       # Number of times Execute suspended instruction fetching (Count)
system.cpu.cpi                               1.543219                       # CPI: cycles per instruction ((Cycle/Count))
system.cpu.ipc                               0.647996                       # IPC: instructions per cycle ((Count/Cycle))
system.cpu.committedInstType_0::No_OpClass          589      0.01%      0.01% # Class of committed instruction (Count)
system.cpu.committedInstType_0::IntAlu        8387362     76.32%     76.33% # Class of committed instruction (Count)
system.cpu.committedInstType_0::IntMult         68608      0.62%     76.95% # Class of committed instruction (Count)
system.cpu.committedInstType_0::IntDiv              9      0.00%     76.95% # Class of committed instruction (Count)
system.cpu.committedInstType_0::FloatAdd         7468      0.07%     77.02% # Class of committed instruction (Count)
system.cpu.committedInstType_0::FloatCmp         9555      0.09%     77.11% # Class of committed instruction (Count)
system.cpu.committedInstType_0::FloatCvt        48762      0.44%     77.55% # Class of committed instruction (Count)
system.cpu.committedInstType_0::FloatMult        43570      0.40%     77.95% # Class of committed instruction (Count)
system.cpu.committedInstType_0::FloatMultAcc        20577      0.19%     78.14% # Class of committed instruction (Count)
system.cpu.committedInstType_0::FloatDiv        20138      0.18%     78.32% # Class of committed instruction (Count)
system.cpu.committedInstType_0::FloatMisc        29626      0.27%     78.59% # Class of committed instruction (Count)
system.cpu.committedInstType_0::FloatSqrt         2058      0.02%     78.61% # Class of committed instruction (Count)
system.cpu.committedInstType_0::SimdAdd          1298      0.01%     78.62% # Class of committed instruction (Count)
system.cpu.committedInstType_0::SimdAddAcc            0      0.00%     78.62% # Class of committed instruction (Count)
system.cpu.committedInstType_0::SimdAlu          3092      0.03%     78.65% # Class of committed instruction (Count)
system.cpu.committedInstType_0::SimdCmp          2365      0.02%     78.67% # Class of committed instruction (Count)
system.cpu.committedInstType_0::SimdCvt             5      0.00%     78.67% # Class of committed instruction (Count)
system.cpu.committedInstType_0::SimdMisc         1936      0.02%     78.69% # Class of committed instruction (Count)
system.cpu.committedInstType_0::SimdMult            0      0.00%     78.69% # Class of committed instruction (Count)
system.cpu.committedInstType_0::SimdMultAcc            0      0.00%     78.69% # Class of committed instruction (Count)
system.cpu.committedInstType_0::SimdShift            0      0.00%     78.69% # Class of committed instruction (Count)
system.cpu.committedInstType_0::SimdShiftAcc            0      0.00%     78.69% # Class of committed instruction (Count)
system.cpu.committedInstType_0::SimdDiv             0      0.00%     78.69% # Class of committed instruction (Count)
system.cpu.committedInstType_0::SimdSqrt            0      0.00%     78.69% # Class of committed instruction (Count)
system.cpu.committedInstType_0::SimdFloatAdd            0      0.00%     78.69% # Class of committed instruction (Count)
system.cpu.committedInstType_0::SimdFloatAlu            0      0.00%     78.69% # Class of committed instruction (Count)
system.cpu.committedInstType_0::SimdFloatCmp            0      0.00%     78.69% # Class of committed instruction (Count)
system.cpu.committedInstType_0::SimdFloatCvt            0      0.00%     78.69% # Class of committed instruction (Count)
system.cpu.committedInstType_0::SimdFloatDiv            0      0.00%     78.69% # Class of committed instruction (Count)
system.cpu.committedInstType_0::SimdFloatMisc            0      0.00%     78.69% # Class of committed instruction (Count)
system.cpu.committedInstType_0::SimdFloatMult            0      0.00%     78.69% # Class of committed instruction (Count)
system.cpu.committedInstType_0::SimdFloatMultAcc            0      0.00%     78.69% # Class of committed instruction (Count)
system.cpu.committedInstType_0::SimdFloatSqrt            0      0.00%     78.69% # Class of committed instruction (Count)
system.cpu.committedInstType_0::SimdReduceAdd            0      0.00%     78.69% # Class of committed instruction (Count)
system.cpu.committedInstType_0::SimdReduceAlu            0      0.00%     78.69% # Class of committed instruction (Count)
system.cpu.committedInstType_0::SimdReduceCmp            0      0.00%     78.69% # Class of committed instruction (Count)
system.cpu.committedInstType_0::SimdFloatReduceAdd            0      0.00%     78.69% # Class of committed instruction (Count)
system.cpu.committedInstType_0::SimdFloatReduceCmp            0      0.00%     78.69% # Class of committed instruction (Count)
system.cpu.committedInstType_0::SimdAes             0      0.00%     78.69% # Class of committed instruction (Count)
system.cpu.committedInstType_0::SimdAesMix            0      0.00%     78.69% # Class of committed instruction (Count)
system.cpu.committedInstType_0::SimdSha1Hash            0      0.00%     78.69% # Class of committed instruction (Count)
system.cpu.committedInstType_0::SimdSha1Hash2            0      0.00%     78.69% # Class of committed instruction (Count)
system.cpu.committedInstType_0::SimdSha256Hash            0      0.00%     78.69% # Class of committed instruction (Count)
system.cpu.committedInstType_0::SimdSha256Hash2            0      0.00%     78.69% # Class of committed instruction (Count)
system.cpu.committedInstType_0::SimdShaSigma2            0      0.00%     78.69% # Class of committed instruction (Count)
system.cpu.committedInstType_0::SimdShaSigma3            0      0.00%     78.69% # Class of committed instruction (Count)
system.cpu.committedInstType_0::SimdPredAlu            0      0.00%     78.69% # Class of committed instruction (Count)
system.cpu.committedInstType_0::MemRead       1247677     11.35%     90.04% # Class of committed instruction (Count)
system.cpu.committedInstType_0::MemWrite      1094493      9.96%    100.00% # Class of committed instruction (Count)
system.cpu.committedInstType_0::FloatMemRead            0      0.00%    100.00% # Class of committed instruction (Count)
system.cpu.committedInstType_0::FloatMemWrite            0      0.00%    100.00% # Class of committed instruction (Count)
system.cpu.committedInstType_0::IprAccess            0      0.00%    100.00% # Class of committed instruction (Count)
system.cpu.committedInstType_0::InstPrefetch            0      0.00%    100.00% # Class of committed instruction (Count)
system.cpu.committedInstType_0::total        10989188                       # Class of committed instruction (Count)
system.cpu.branchPred.lookups                 2461735                       # Number of BP lookups (Count)
system.cpu.branchPred.condPredicted           1611831                       # Number of conditional branches predicted (Count)
system.cpu.branchPred.condIncorrect             26413                       # Number of conditional branches incorrect (Count)
system.cpu.branchPred.BTBLookups              1055859                       # Number of BTB lookups (Count)
system.cpu.branchPred.BTBHits                 1046492                       # Number of BTB hits (Count)
system.cpu.branchPred.BTBHitRatio            0.991129                       # BTB Hit Ratio (Ratio)
system.cpu.branchPred.RASUsed                  325811                       # Number of times the RAS was used to get a target. (Count)
system.cpu.branchPred.RASIncorrect                 21                       # Number of incorrect RAS predictions. (Count)
system.cpu.branchPred.indirectLookups           75880                       # Number of indirect predictor lookups. (Count)
system.cpu.branchPred.indirectHits              74486                       # Number of indirect target hits. (Count)
system.cpu.branchPred.indirectMisses             1394                       # Number of indirect misses. (Count)
system.cpu.branchPred.indirectMispredicted          685                       # Number of mispredicted indirect branches. (Count)
system.cpu.constantVU.cvuLoadLookups              281                       # Number of CVU Load Lookups (Count)
system.cpu.constantVU.cvuStoreLookups         1093945                       # Number of CVU Store Lookups (Count)
system.cpu.constantVU.loadMatched                  80                       # Number of loads that matched (Count)
system.cpu.constantVU.loadMatchedIncorrect          201                       # Number of loads that did not matched (Count)
system.cpu.dcache.demandHits::cpu.data        2334855                       # number of demand (read+write) hits (Count)
system.cpu.dcache.demandHits::total           2334855                       # number of demand (read+write) hits (Count)
system.cpu.dcache.overallHits::cpu.data       2336461                       # number of overall hits (Count)
system.cpu.dcache.overallHits::total          2336461                       # number of overall hits (Count)
system.cpu.dcache.demandMisses::cpu.data        27798                       # number of demand (read+write) misses (Count)
system.cpu.dcache.demandMisses::total           27798                       # number of demand (read+write) misses (Count)
system.cpu.dcache.overallMisses::cpu.data        27824                       # number of overall misses (Count)
system.cpu.dcache.overallMisses::total          27824                       # number of overall misses (Count)
system.cpu.dcache.demandMissLatency::cpu.data    962607500                       # number of demand (read+write) miss ticks (Tick)
system.cpu.dcache.demandMissLatency::total    962607500                       # number of demand (read+write) miss ticks (Tick)
system.cpu.dcache.overallMissLatency::cpu.data    962607500                       # number of overall miss ticks (Tick)
system.cpu.dcache.overallMissLatency::total    962607500                       # number of overall miss ticks (Tick)
system.cpu.dcache.demandAccesses::cpu.data      2362653                       # number of demand (read+write) accesses (Count)
system.cpu.dcache.demandAccesses::total       2362653                       # number of demand (read+write) accesses (Count)
system.cpu.dcache.overallAccesses::cpu.data      2364285                       # number of overall (read+write) accesses (Count)
system.cpu.dcache.overallAccesses::total      2364285                       # number of overall (read+write) accesses (Count)
system.cpu.dcache.demandMissRate::cpu.data     0.011766                       # miss rate for demand accesses (Ratio)
system.cpu.dcache.demandMissRate::total      0.011766                       # miss rate for demand accesses (Ratio)
system.cpu.dcache.overallMissRate::cpu.data     0.011768                       # miss rate for overall accesses (Ratio)
system.cpu.dcache.overallMissRate::total     0.011768                       # miss rate for overall accesses (Ratio)
system.cpu.dcache.demandAvgMissLatency::cpu.data 34628.660335                       # average overall miss latency in ticks ((Tick/Count))
system.cpu.dcache.demandAvgMissLatency::total 34628.660335                       # average overall miss latency in ticks ((Tick/Count))
system.cpu.dcache.overallAvgMissLatency::cpu.data 34596.301754                       # average overall miss latency ((Tick/Count))
system.cpu.dcache.overallAvgMissLatency::total 34596.301754                       # average overall miss latency ((Tick/Count))
system.cpu.dcache.blockedCycles::no_mshrs            0                       # number of cycles access was blocked (Cycle)
system.cpu.dcache.blockedCycles::no_targets            0                       # number of cycles access was blocked (Cycle)
system.cpu.dcache.blockedCauses::no_mshrs            0                       # number of times access was blocked (Count)
system.cpu.dcache.blockedCauses::no_targets            0                       # number of times access was blocked (Count)
system.cpu.dcache.avgBlocked::no_mshrs            nan                       # average number of cycles each access was blocked ((Cycle/Count))
system.cpu.dcache.avgBlocked::no_targets          nan                       # average number of cycles each access was blocked ((Cycle/Count))
system.cpu.dcache.writebacks::writebacks         9272                       # number of writebacks (Count)
system.cpu.dcache.writebacks::total              9272                       # number of writebacks (Count)
system.cpu.dcache.demandMshrHits::cpu.data         4044                       # number of demand (read+write) MSHR hits (Count)
system.cpu.dcache.demandMshrHits::total          4044                       # number of demand (read+write) MSHR hits (Count)
system.cpu.dcache.overallMshrHits::cpu.data         4044                       # number of overall MSHR hits (Count)
system.cpu.dcache.overallMshrHits::total         4044                       # number of overall MSHR hits (Count)
system.cpu.dcache.demandMshrMisses::cpu.data        23754                       # number of demand (read+write) MSHR misses (Count)
system.cpu.dcache.demandMshrMisses::total        23754                       # number of demand (read+write) MSHR misses (Count)
system.cpu.dcache.overallMshrMisses::cpu.data        23780                       # number of overall MSHR misses (Count)
system.cpu.dcache.overallMshrMisses::total        23780                       # number of overall MSHR misses (Count)
system.cpu.dcache.demandMshrMissLatency::cpu.data    725369500                       # number of demand (read+write) MSHR miss ticks (Tick)
system.cpu.dcache.demandMshrMissLatency::total    725369500                       # number of demand (read+write) MSHR miss ticks (Tick)
system.cpu.dcache.overallMshrMissLatency::cpu.data    725901000                       # number of overall MSHR miss ticks (Tick)
system.cpu.dcache.overallMshrMissLatency::total    725901000                       # number of overall MSHR miss ticks (Tick)
system.cpu.dcache.demandMshrMissRate::cpu.data     0.010054                       # mshr miss ratio for demand accesses (Ratio)
system.cpu.dcache.demandMshrMissRate::total     0.010054                       # mshr miss ratio for demand accesses (Ratio)
system.cpu.dcache.overallMshrMissRate::cpu.data     0.010058                       # mshr miss ratio for overall accesses (Ratio)
system.cpu.dcache.overallMshrMissRate::total     0.010058                       # mshr miss ratio for overall accesses (Ratio)
system.cpu.dcache.demandAvgMshrMissLatency::cpu.data 30536.730656                       # average overall mshr miss latency ((Tick/Count))
system.cpu.dcache.demandAvgMshrMissLatency::total 30536.730656                       # average overall mshr miss latency ((Tick/Count))
system.cpu.dcache.overallAvgMshrMissLatency::cpu.data 30525.693860                       # average overall mshr miss latency ((Tick/Count))
system.cpu.dcache.overallAvgMshrMissLatency::total 30525.693860                       # average overall mshr miss latency ((Tick/Count))
system.cpu.dcache.replacements                  22761                       # number of replacements (Count)
system.cpu.dcache.LoadLockedReq.hits::cpu.data          262                       # number of LoadLockedReq hits (Count)
system.cpu.dcache.LoadLockedReq.hits::total          262                       # number of LoadLockedReq hits (Count)
system.cpu.dcache.LoadLockedReq.misses::cpu.data            5                       # number of LoadLockedReq misses (Count)
system.cpu.dcache.LoadLockedReq.misses::total            5                       # number of LoadLockedReq misses (Count)
system.cpu.dcache.LoadLockedReq.missLatency::cpu.data       155500                       # number of LoadLockedReq miss ticks (Tick)
system.cpu.dcache.LoadLockedReq.missLatency::total       155500                       # number of LoadLockedReq miss ticks (Tick)
system.cpu.dcache.LoadLockedReq.accesses::cpu.data          267                       # number of LoadLockedReq accesses(hits+misses) (Count)
system.cpu.dcache.LoadLockedReq.accesses::total          267                       # number of LoadLockedReq accesses(hits+misses) (Count)
system.cpu.dcache.LoadLockedReq.missRate::cpu.data     0.018727                       # miss rate for LoadLockedReq accesses (Ratio)
system.cpu.dcache.LoadLockedReq.missRate::total     0.018727                       # miss rate for LoadLockedReq accesses (Ratio)
system.cpu.dcache.LoadLockedReq.avgMissLatency::cpu.data        31100                       # average LoadLockedReq miss latency ((Tick/Count))
system.cpu.dcache.LoadLockedReq.avgMissLatency::total        31100                       # average LoadLockedReq miss latency ((Tick/Count))
system.cpu.dcache.LoadLockedReq.mshrMisses::cpu.data            5                       # number of LoadLockedReq MSHR misses (Count)
system.cpu.dcache.LoadLockedReq.mshrMisses::total            5                       # number of LoadLockedReq MSHR misses (Count)
system.cpu.dcache.LoadLockedReq.mshrMissLatency::cpu.data       150500                       # number of LoadLockedReq MSHR miss ticks (Tick)
system.cpu.dcache.LoadLockedReq.mshrMissLatency::total       150500                       # number of LoadLockedReq MSHR miss ticks (Tick)
system.cpu.dcache.LoadLockedReq.mshrMissRate::cpu.data     0.018727                       # mshr miss rate for LoadLockedReq accesses (Ratio)
system.cpu.dcache.LoadLockedReq.mshrMissRate::total     0.018727                       # mshr miss rate for LoadLockedReq accesses (Ratio)
system.cpu.dcache.LoadLockedReq.avgMshrMissLatency::cpu.data        30100                       # average LoadLockedReq mshr miss latency ((Tick/Count))
system.cpu.dcache.LoadLockedReq.avgMshrMissLatency::total        30100                       # average LoadLockedReq mshr miss latency ((Tick/Count))
system.cpu.dcache.ReadReq.hits::cpu.data      1248458                       # number of ReadReq hits (Count)
system.cpu.dcache.ReadReq.hits::total         1248458                       # number of ReadReq hits (Count)
system.cpu.dcache.ReadReq.misses::cpu.data        19652                       # number of ReadReq misses (Count)
system.cpu.dcache.ReadReq.misses::total         19652                       # number of ReadReq misses (Count)
system.cpu.dcache.ReadReq.missLatency::cpu.data    448833000                       # number of ReadReq miss ticks (Tick)
system.cpu.dcache.ReadReq.missLatency::total    448833000                       # number of ReadReq miss ticks (Tick)
system.cpu.dcache.ReadReq.accesses::cpu.data      1268110                       # number of ReadReq accesses(hits+misses) (Count)
system.cpu.dcache.ReadReq.accesses::total      1268110                       # number of ReadReq accesses(hits+misses) (Count)
system.cpu.dcache.ReadReq.missRate::cpu.data     0.015497                       # miss rate for ReadReq accesses (Ratio)
system.cpu.dcache.ReadReq.missRate::total     0.015497                       # miss rate for ReadReq accesses (Ratio)
system.cpu.dcache.ReadReq.avgMissLatency::cpu.data 22839.049461                       # average ReadReq miss latency ((Tick/Count))
system.cpu.dcache.ReadReq.avgMissLatency::total 22839.049461                       # average ReadReq miss latency ((Tick/Count))
system.cpu.dcache.ReadReq.mshrHits::cpu.data          651                       # number of ReadReq MSHR hits (Count)
system.cpu.dcache.ReadReq.mshrHits::total          651                       # number of ReadReq MSHR hits (Count)
system.cpu.dcache.ReadReq.mshrMisses::cpu.data        19001                       # number of ReadReq MSHR misses (Count)
system.cpu.dcache.ReadReq.mshrMisses::total        19001                       # number of ReadReq MSHR misses (Count)
system.cpu.dcache.ReadReq.mshrMissLatency::cpu.data    414480000                       # number of ReadReq MSHR miss ticks (Tick)
system.cpu.dcache.ReadReq.mshrMissLatency::total    414480000                       # number of ReadReq MSHR miss ticks (Tick)
system.cpu.dcache.ReadReq.mshrMissRate::cpu.data     0.014984                       # mshr miss rate for ReadReq accesses (Ratio)
system.cpu.dcache.ReadReq.mshrMissRate::total     0.014984                       # mshr miss rate for ReadReq accesses (Ratio)
system.cpu.dcache.ReadReq.avgMshrMissLatency::cpu.data 21813.588758                       # average ReadReq mshr miss latency ((Tick/Count))
system.cpu.dcache.ReadReq.avgMshrMissLatency::total 21813.588758                       # average ReadReq mshr miss latency ((Tick/Count))
system.cpu.dcache.SoftPFReq.hits::cpu.data         1606                       # number of SoftPFReq hits (Count)
system.cpu.dcache.SoftPFReq.hits::total          1606                       # number of SoftPFReq hits (Count)
system.cpu.dcache.SoftPFReq.misses::cpu.data           26                       # number of SoftPFReq misses (Count)
system.cpu.dcache.SoftPFReq.misses::total           26                       # number of SoftPFReq misses (Count)
system.cpu.dcache.SoftPFReq.accesses::cpu.data         1632                       # number of SoftPFReq accesses(hits+misses) (Count)
system.cpu.dcache.SoftPFReq.accesses::total         1632                       # number of SoftPFReq accesses(hits+misses) (Count)
system.cpu.dcache.SoftPFReq.missRate::cpu.data     0.015931                       # miss rate for SoftPFReq accesses (Ratio)
system.cpu.dcache.SoftPFReq.missRate::total     0.015931                       # miss rate for SoftPFReq accesses (Ratio)
system.cpu.dcache.SoftPFReq.mshrMisses::cpu.data           26                       # number of SoftPFReq MSHR misses (Count)
system.cpu.dcache.SoftPFReq.mshrMisses::total           26                       # number of SoftPFReq MSHR misses (Count)
system.cpu.dcache.SoftPFReq.mshrMissLatency::cpu.data       531500                       # number of SoftPFReq MSHR miss ticks (Tick)
system.cpu.dcache.SoftPFReq.mshrMissLatency::total       531500                       # number of SoftPFReq MSHR miss ticks (Tick)
system.cpu.dcache.SoftPFReq.mshrMissRate::cpu.data     0.015931                       # mshr miss rate for SoftPFReq accesses (Ratio)
system.cpu.dcache.SoftPFReq.mshrMissRate::total     0.015931                       # mshr miss rate for SoftPFReq accesses (Ratio)
system.cpu.dcache.SoftPFReq.avgMshrMissLatency::cpu.data 20442.307692                       # average SoftPFReq mshr miss latency ((Tick/Count))
system.cpu.dcache.SoftPFReq.avgMshrMissLatency::total 20442.307692                       # average SoftPFReq mshr miss latency ((Tick/Count))
system.cpu.dcache.StoreCondReq.hits::cpu.data          267                       # number of StoreCondReq hits (Count)
system.cpu.dcache.StoreCondReq.hits::total          267                       # number of StoreCondReq hits (Count)
system.cpu.dcache.StoreCondReq.accesses::cpu.data          267                       # number of StoreCondReq accesses(hits+misses) (Count)
system.cpu.dcache.StoreCondReq.accesses::total          267                       # number of StoreCondReq accesses(hits+misses) (Count)
system.cpu.dcache.WriteLineReq.hits::cpu.data          161                       # number of WriteLineReq hits (Count)
system.cpu.dcache.WriteLineReq.hits::total          161                       # number of WriteLineReq hits (Count)
system.cpu.dcache.WriteLineReq.misses::cpu.data           78                       # number of WriteLineReq misses (Count)
system.cpu.dcache.WriteLineReq.misses::total           78                       # number of WriteLineReq misses (Count)
system.cpu.dcache.WriteLineReq.missLatency::cpu.data      2244500                       # number of WriteLineReq miss ticks (Tick)
system.cpu.dcache.WriteLineReq.missLatency::total      2244500                       # number of WriteLineReq miss ticks (Tick)
system.cpu.dcache.WriteLineReq.accesses::cpu.data          239                       # number of WriteLineReq accesses(hits+misses) (Count)
system.cpu.dcache.WriteLineReq.accesses::total          239                       # number of WriteLineReq accesses(hits+misses) (Count)
system.cpu.dcache.WriteLineReq.missRate::cpu.data     0.326360                       # miss rate for WriteLineReq accesses (Ratio)
system.cpu.dcache.WriteLineReq.missRate::total     0.326360                       # miss rate for WriteLineReq accesses (Ratio)
system.cpu.dcache.WriteLineReq.avgMissLatency::cpu.data 28775.641026                       # average WriteLineReq miss latency ((Tick/Count))
system.cpu.dcache.WriteLineReq.avgMissLatency::total 28775.641026                       # average WriteLineReq miss latency ((Tick/Count))
system.cpu.dcache.WriteLineReq.mshrMisses::cpu.data           78                       # number of WriteLineReq MSHR misses (Count)
system.cpu.dcache.WriteLineReq.mshrMisses::total           78                       # number of WriteLineReq MSHR misses (Count)
system.cpu.dcache.WriteLineReq.mshrMissLatency::cpu.data      2166500                       # number of WriteLineReq MSHR miss ticks (Tick)
system.cpu.dcache.WriteLineReq.mshrMissLatency::total      2166500                       # number of WriteLineReq MSHR miss ticks (Tick)
system.cpu.dcache.WriteLineReq.mshrMissRate::cpu.data     0.326360                       # mshr miss rate for WriteLineReq accesses (Ratio)
system.cpu.dcache.WriteLineReq.mshrMissRate::total     0.326360                       # mshr miss rate for WriteLineReq accesses (Ratio)
system.cpu.dcache.WriteLineReq.avgMshrMissLatency::cpu.data 27775.641026                       # average WriteLineReq mshr miss latency ((Tick/Count))
system.cpu.dcache.WriteLineReq.avgMshrMissLatency::total 27775.641026                       # average WriteLineReq mshr miss latency ((Tick/Count))
system.cpu.dcache.WriteReq.hits::cpu.data      1086236                       # number of WriteReq hits (Count)
system.cpu.dcache.WriteReq.hits::total        1086236                       # number of WriteReq hits (Count)
system.cpu.dcache.WriteReq.misses::cpu.data         8068                       # number of WriteReq misses (Count)
system.cpu.dcache.WriteReq.misses::total         8068                       # number of WriteReq misses (Count)
system.cpu.dcache.WriteReq.missLatency::cpu.data    511530000                       # number of WriteReq miss ticks (Tick)
system.cpu.dcache.WriteReq.missLatency::total    511530000                       # number of WriteReq miss ticks (Tick)
system.cpu.dcache.WriteReq.accesses::cpu.data      1094304                       # number of WriteReq accesses(hits+misses) (Count)
system.cpu.dcache.WriteReq.accesses::total      1094304                       # number of WriteReq accesses(hits+misses) (Count)
system.cpu.dcache.WriteReq.missRate::cpu.data     0.007373                       # miss rate for WriteReq accesses (Ratio)
system.cpu.dcache.WriteReq.missRate::total     0.007373                       # miss rate for WriteReq accesses (Ratio)
system.cpu.dcache.WriteReq.avgMissLatency::cpu.data 63402.330193                       # average WriteReq miss latency ((Tick/Count))
system.cpu.dcache.WriteReq.avgMissLatency::total 63402.330193                       # average WriteReq miss latency ((Tick/Count))
system.cpu.dcache.WriteReq.mshrHits::cpu.data         3393                       # number of WriteReq MSHR hits (Count)
system.cpu.dcache.WriteReq.mshrHits::total         3393                       # number of WriteReq MSHR hits (Count)
system.cpu.dcache.WriteReq.mshrMisses::cpu.data         4675                       # number of WriteReq MSHR misses (Count)
system.cpu.dcache.WriteReq.mshrMisses::total         4675                       # number of WriteReq MSHR misses (Count)
system.cpu.dcache.WriteReq.mshrMissLatency::cpu.data    308723000                       # number of WriteReq MSHR miss ticks (Tick)
system.cpu.dcache.WriteReq.mshrMissLatency::total    308723000                       # number of WriteReq MSHR miss ticks (Tick)
system.cpu.dcache.WriteReq.mshrMissRate::cpu.data     0.004272                       # mshr miss rate for WriteReq accesses (Ratio)
system.cpu.dcache.WriteReq.mshrMissRate::total     0.004272                       # mshr miss rate for WriteReq accesses (Ratio)
system.cpu.dcache.WriteReq.avgMshrMissLatency::cpu.data 66037.005348                       # average WriteReq mshr miss latency ((Tick/Count))
system.cpu.dcache.WriteReq.avgMshrMissLatency::total 66037.005348                       # average WriteReq mshr miss latency ((Tick/Count))
system.cpu.dcache.power_state.pwrStateResidencyTicks::UNDEFINED   7425054500                       # Cumulative time (in ticks) in various power states (Tick)
system.cpu.dcache.tags.tagsInUse           957.055192                       # Average ticks per tags in use ((Tick/Count))
system.cpu.dcache.tags.totalRefs              2360775                       # Total number of references to valid blocks. (Count)
system.cpu.dcache.tags.sampledRefs              23785                       # Sample count of references to valid blocks. (Count)
system.cpu.dcache.tags.avgRefs              99.254782                       # Average number of references to valid blocks. ((Count/Count))
system.cpu.dcache.tags.warmupTick              176500                       # The tick when the warmup percentage was hit. (Tick)
system.cpu.dcache.tags.occupancies::cpu.data   957.055192                       # Average occupied blocks per tick, per requestor ((Count/Tick))
system.cpu.dcache.tags.avgOccs::cpu.data     0.934624                       # Average percentage of cache occupancy ((Ratio/Tick))
system.cpu.dcache.tags.avgOccs::total        0.934624                       # Average percentage of cache occupancy ((Ratio/Tick))
system.cpu.dcache.tags.occupanciesTaskId::1024         1024                       # Occupied blocks per task id (Count)
system.cpu.dcache.tags.ageTaskId_1024::0           67                       # Occupied blocks per task id, per block age (Count)
system.cpu.dcache.tags.ageTaskId_1024::1          350                       # Occupied blocks per task id, per block age (Count)
system.cpu.dcache.tags.ageTaskId_1024::2          603                       # Occupied blocks per task id, per block age (Count)
system.cpu.dcache.tags.ageTaskId_1024::3            4                       # Occupied blocks per task id, per block age (Count)
system.cpu.dcache.tags.ratioOccsTaskId::1024            1                       # Ratio of occupied blocks and all blocks, per task id (Ratio)
system.cpu.dcache.tags.tagAccesses            4753423                       # Number of tag accesses (Count)
system.cpu.dcache.tags.dataAccesses           4753423                       # Number of data accesses (Count)
system.cpu.dcache.tags.power_state.pwrStateResidencyTicks::UNDEFINED   7425054500                       # Cumulative time (in ticks) in various power states (Tick)
system.cpu.fetch2.intInstructions             6284882                       # Number of integer instructions successfully decoded (Count)
system.cpu.fetch2.fpInstructions                    0                       # Number of floating point instructions successfully decoded (Count)
system.cpu.fetch2.vecInstructions              203046                       # Number of SIMD instructions successfully decoded (Count)
system.cpu.fetch2.loadInstructions             742829                       # Number of memory load instructions successfully decoded (Count)
system.cpu.fetch2.storeInstructions            393706                       # Number of memory store instructions successfully decoded (Count)
system.cpu.fetch2.amoInstructions                   0                       # Number of memory atomic instructions successfully decoded (Count)
system.cpu.icache.demandHits::cpu.inst        3750654                       # number of demand (read+write) hits (Count)
system.cpu.icache.demandHits::total           3750654                       # number of demand (read+write) hits (Count)
system.cpu.icache.overallHits::cpu.inst       3750654                       # number of overall hits (Count)
system.cpu.icache.overallHits::total          3750654                       # number of overall hits (Count)
system.cpu.icache.demandMisses::cpu.inst        21494                       # number of demand (read+write) misses (Count)
system.cpu.icache.demandMisses::total           21494                       # number of demand (read+write) misses (Count)
system.cpu.icache.overallMisses::cpu.inst        21494                       # number of overall misses (Count)
system.cpu.icache.overallMisses::total          21494                       # number of overall misses (Count)
system.cpu.icache.demandMissLatency::cpu.inst    448423500                       # number of demand (read+write) miss ticks (Tick)
system.cpu.icache.demandMissLatency::total    448423500                       # number of demand (read+write) miss ticks (Tick)
system.cpu.icache.overallMissLatency::cpu.inst    448423500                       # number of overall miss ticks (Tick)
system.cpu.icache.overallMissLatency::total    448423500                       # number of overall miss ticks (Tick)
system.cpu.icache.demandAccesses::cpu.inst      3772148                       # number of demand (read+write) accesses (Count)
system.cpu.icache.demandAccesses::total       3772148                       # number of demand (read+write) accesses (Count)
system.cpu.icache.overallAccesses::cpu.inst      3772148                       # number of overall (read+write) accesses (Count)
system.cpu.icache.overallAccesses::total      3772148                       # number of overall (read+write) accesses (Count)
system.cpu.icache.demandMissRate::cpu.inst     0.005698                       # miss rate for demand accesses (Ratio)
system.cpu.icache.demandMissRate::total      0.005698                       # miss rate for demand accesses (Ratio)
system.cpu.icache.overallMissRate::cpu.inst     0.005698                       # miss rate for overall accesses (Ratio)
system.cpu.icache.overallMissRate::total     0.005698                       # miss rate for overall accesses (Ratio)
system.cpu.icache.demandAvgMissLatency::cpu.inst 20862.729134                       # average overall miss latency in ticks ((Tick/Count))
system.cpu.icache.demandAvgMissLatency::total 20862.729134                       # average overall miss latency in ticks ((Tick/Count))
system.cpu.icache.overallAvgMissLatency::cpu.inst 20862.729134                       # average overall miss latency ((Tick/Count))
system.cpu.icache.overallAvgMissLatency::total 20862.729134                       # average overall miss latency ((Tick/Count))
system.cpu.icache.blockedCycles::no_mshrs            0                       # number of cycles access was blocked (Cycle)
system.cpu.icache.blockedCycles::no_targets            0                       # number of cycles access was blocked (Cycle)
system.cpu.icache.blockedCauses::no_mshrs            0                       # number of times access was blocked (Count)
system.cpu.icache.blockedCauses::no_targets            0                       # number of times access was blocked (Count)
system.cpu.icache.avgBlocked::no_mshrs            nan                       # average number of cycles each access was blocked ((Cycle/Count))
system.cpu.icache.avgBlocked::no_targets          nan                       # average number of cycles each access was blocked ((Cycle/Count))
system.cpu.icache.writebacks::writebacks        21237                       # number of writebacks (Count)
system.cpu.icache.writebacks::total             21237                       # number of writebacks (Count)
system.cpu.icache.demandMshrMisses::cpu.inst        21494                       # number of demand (read+write) MSHR misses (Count)
system.cpu.icache.demandMshrMisses::total        21494                       # number of demand (read+write) MSHR misses (Count)
system.cpu.icache.overallMshrMisses::cpu.inst        21494                       # number of overall MSHR misses (Count)
system.cpu.icache.overallMshrMisses::total        21494                       # number of overall MSHR misses (Count)
system.cpu.icache.demandMshrMissLatency::cpu.inst    426930500                       # number of demand (read+write) MSHR miss ticks (Tick)
system.cpu.icache.demandMshrMissLatency::total    426930500                       # number of demand (read+write) MSHR miss ticks (Tick)
system.cpu.icache.overallMshrMissLatency::cpu.inst    426930500                       # number of overall MSHR miss ticks (Tick)
system.cpu.icache.overallMshrMissLatency::total    426930500                       # number of overall MSHR miss ticks (Tick)
system.cpu.icache.demandMshrMissRate::cpu.inst     0.005698                       # mshr miss ratio for demand accesses (Ratio)
system.cpu.icache.demandMshrMissRate::total     0.005698                       # mshr miss ratio for demand accesses (Ratio)
system.cpu.icache.overallMshrMissRate::cpu.inst     0.005698                       # mshr miss ratio for overall accesses (Ratio)
system.cpu.icache.overallMshrMissRate::total     0.005698                       # mshr miss ratio for overall accesses (Ratio)
system.cpu.icache.demandAvgMshrMissLatency::cpu.inst 19862.775658                       # average overall mshr miss latency ((Tick/Count))
system.cpu.icache.demandAvgMshrMissLatency::total 19862.775658                       # average overall mshr miss latency ((Tick/Count))
system.cpu.icache.overallAvgMshrMissLatency::cpu.inst 19862.775658                       # average overall mshr miss latency ((Tick/Count))
system.cpu.icache.overallAvgMshrMissLatency::total 19862.775658                       # average overall mshr miss latency ((Tick/Count))
system.cpu.icache.replacements                  21237                       # number of replacements (Count)
system.cpu.icache.ReadReq.hits::cpu.inst      3750654                       # number of ReadReq hits (Count)
system.cpu.icache.ReadReq.hits::total         3750654                       # number of ReadReq hits (Count)
system.cpu.icache.ReadReq.misses::cpu.inst        21494                       # number of ReadReq misses (Count)
system.cpu.icache.ReadReq.misses::total         21494                       # number of ReadReq misses (Count)
system.cpu.icache.ReadReq.missLatency::cpu.inst    448423500                       # number of ReadReq miss ticks (Tick)
system.cpu.icache.ReadReq.missLatency::total    448423500                       # number of ReadReq miss ticks (Tick)
system.cpu.icache.ReadReq.accesses::cpu.inst      3772148                       # number of ReadReq accesses(hits+misses) (Count)
system.cpu.icache.ReadReq.accesses::total      3772148                       # number of ReadReq accesses(hits+misses) (Count)
system.cpu.icache.ReadReq.missRate::cpu.inst     0.005698                       # miss rate for ReadReq accesses (Ratio)
system.cpu.icache.ReadReq.missRate::total     0.005698                       # miss rate for ReadReq accesses (Ratio)
system.cpu.icache.ReadReq.avgMissLatency::cpu.inst 20862.729134                       # average ReadReq miss latency ((Tick/Count))
system.cpu.icache.ReadReq.avgMissLatency::total 20862.729134                       # average ReadReq miss latency ((Tick/Count))
system.cpu.icache.ReadReq.mshrMisses::cpu.inst        21494                       # number of ReadReq MSHR misses (Count)
system.cpu.icache.ReadReq.mshrMisses::total        21494                       # number of ReadReq MSHR misses (Count)
system.cpu.icache.ReadReq.mshrMissLatency::cpu.inst    426930500                       # number of ReadReq MSHR miss ticks (Tick)
system.cpu.icache.ReadReq.mshrMissLatency::total    426930500                       # number of ReadReq MSHR miss ticks (Tick)
system.cpu.icache.ReadReq.mshrMissRate::cpu.inst     0.005698                       # mshr miss rate for ReadReq accesses (Ratio)
system.cpu.icache.ReadReq.mshrMissRate::total     0.005698                       # mshr miss rate for ReadReq accesses (Ratio)
system.cpu.icache.ReadReq.avgMshrMissLatency::cpu.inst 19862.775658                       # average ReadReq mshr miss latency ((Tick/Count))
system.cpu.icache.ReadReq.avgMshrMissLatency::total 19862.775658                       # average ReadReq mshr miss latency ((Tick/Count))
system.cpu.icache.power_state.pwrStateResidencyTicks::UNDEFINED   7425054500                       # Cumulative time (in ticks) in various power states (Tick)
system.cpu.icache.tags.tagsInUse           255.390661                       # Average ticks per tags in use ((Tick/Count))
system.cpu.icache.tags.totalRefs              3772147                       # Total number of references to valid blocks. (Count)
system.cpu.icache.tags.sampledRefs              21493                       # Sample count of references to valid blocks. (Count)
system.cpu.icache.tags.avgRefs             175.505839                       # Average number of references to valid blocks. ((Count/Count))
system.cpu.icache.tags.warmupTick               87500                       # The tick when the warmup percentage was hit. (Tick)
system.cpu.icache.tags.occupancies::cpu.inst   255.390661                       # Average occupied blocks per tick, per requestor ((Count/Tick))
system.cpu.icache.tags.avgOccs::cpu.inst     0.997620                       # Average percentage of cache occupancy ((Ratio/Tick))
system.cpu.icache.tags.avgOccs::total        0.997620                       # Average percentage of cache occupancy ((Ratio/Tick))
system.cpu.icache.tags.occupanciesTaskId::1024          256                       # Occupied blocks per task id (Count)
system.cpu.icache.tags.ageTaskId_1024::0          131                       # Occupied blocks per task id, per block age (Count)
system.cpu.icache.tags.ageTaskId_1024::1          107                       # Occupied blocks per task id, per block age (Count)
system.cpu.icache.tags.ageTaskId_1024::2           18                       # Occupied blocks per task id, per block age (Count)
system.cpu.icache.tags.ratioOccsTaskId::1024            1                       # Ratio of occupied blocks and all blocks, per task id (Ratio)
system.cpu.icache.tags.tagAccesses            7565789                       # Number of tag accesses (Count)
system.cpu.icache.tags.dataAccesses           7565789                       # Number of data accesses (Count)
system.cpu.icache.tags.power_state.pwrStateResidencyTicks::UNDEFINED   7425054500                       # Cumulative time (in ticks) in various power states (Tick)
system.cpu.loadValuePred.lvpuLookups           742829                       # Number of LVPT lookups (Count)
system.cpu.loadValuePred.predictedIncorrect      1682575                       # Number of incorrect predictions (Count)
system.cpu.mmu.alignFaults                          0                       # Number of MMU faults due to alignment restrictions (Count)
system.cpu.mmu.prefetchFaults                       0                       # Number of MMU faults due to prefetch (Count)
system.cpu.mmu.domainFaults                         0                       # Number of MMU faults due to domain restrictions (Count)
system.cpu.mmu.permsFaults                          0                       # Number of MMU faults due to permissions restrictions (Count)
system.cpu.mmu.dtb.readHits                         0                       # Read hits (Count)
system.cpu.mmu.dtb.readMisses                       0                       # Read misses (Count)
system.cpu.mmu.dtb.writeHits                        0                       # Write hits (Count)
system.cpu.mmu.dtb.writeMisses                      0                       # Write misses (Count)
system.cpu.mmu.dtb.inserts                          0                       # Number of times an entry is inserted into the TLB (Count)
system.cpu.mmu.dtb.flushTlb                         0                       # Number of times complete TLB was flushed (Count)
system.cpu.mmu.dtb.flushTlbMva                      0                       # Number of times TLB was flushed by MVA (Count)
system.cpu.mmu.dtb.flushTlbMvaAsid                  0                       # Number of times TLB was flushed by MVA & ASID (Count)
system.cpu.mmu.dtb.flushTlbAsid                     0                       # Number of times TLB was flushed by ASID (Count)
system.cpu.mmu.dtb.flushedEntries                   0                       # Number of entries that have been flushed from TLB (Count)
system.cpu.mmu.dtb.readAccesses                     0                       # Read accesses (Count)
system.cpu.mmu.dtb.writeAccesses                    0                       # Write accesses (Count)
system.cpu.mmu.dtb.hits                             0                       # Total TLB (inst and data) hits (Count)
system.cpu.mmu.dtb.misses                           0                       # Total TLB (inst and data) misses (Count)
system.cpu.mmu.dtb.accesses                         0                       # Total TLB (inst and data) accesses (Count)
system.cpu.mmu.dtb_walker.walks                     0                       # Table walker walks requested (Count)
system.cpu.mmu.dtb_walker.requestOrigin_Requested::Data            0                       # Table walker requests started/completed, data/inst (Count)
system.cpu.mmu.dtb_walker.requestOrigin_Requested::Inst            0                       # Table walker requests started/completed, data/inst (Count)
system.cpu.mmu.dtb_walker.requestOrigin_Requested::total            0                       # Table walker requests started/completed, data/inst (Count)
system.cpu.mmu.dtb_walker.requestOrigin_Completed::Data            0                       # Table walker requests started/completed, data/inst (Count)
system.cpu.mmu.dtb_walker.requestOrigin_Completed::Inst            0                       # Table walker requests started/completed, data/inst (Count)
system.cpu.mmu.dtb_walker.requestOrigin_Completed::total            0                       # Table walker requests started/completed, data/inst (Count)
system.cpu.mmu.dtb_walker.requestOrigin::total            0                       # Table walker requests started/completed, data/inst (Count)
system.cpu.mmu.dtb_walker.power_state.pwrStateResidencyTicks::UNDEFINED   7425054500                       # Cumulative time (in ticks) in various power states (Tick)
system.cpu.mmu.itb.instHits                         0                       # Inst hits (Count)
system.cpu.mmu.itb.instMisses                       0                       # Inst misses (Count)
system.cpu.mmu.itb.inserts                          0                       # Number of times an entry is inserted into the TLB (Count)
system.cpu.mmu.itb.flushTlb                         0                       # Number of times complete TLB was flushed (Count)
system.cpu.mmu.itb.flushTlbMva                      0                       # Number of times TLB was flushed by MVA (Count)
system.cpu.mmu.itb.flushTlbMvaAsid                  0                       # Number of times TLB was flushed by MVA & ASID (Count)
system.cpu.mmu.itb.flushTlbAsid                     0                       # Number of times TLB was flushed by ASID (Count)
system.cpu.mmu.itb.flushedEntries                   0                       # Number of entries that have been flushed from TLB (Count)
system.cpu.mmu.itb.instAccesses                     0                       # Inst accesses (Count)
system.cpu.mmu.itb.hits                             0                       # Total TLB (inst and data) hits (Count)
system.cpu.mmu.itb.misses                           0                       # Total TLB (inst and data) misses (Count)
system.cpu.mmu.itb.accesses                         0                       # Total TLB (inst and data) accesses (Count)
system.cpu.mmu.itb_walker.walks                     0                       # Table walker walks requested (Count)
system.cpu.mmu.itb_walker.requestOrigin_Requested::Data            0                       # Table walker requests started/completed, data/inst (Count)
system.cpu.mmu.itb_walker.requestOrigin_Requested::Inst            0                       # Table walker requests started/completed, data/inst (Count)
system.cpu.mmu.itb_walker.requestOrigin_Requested::total            0                       # Table walker requests started/completed, data/inst (Count)
system.cpu.mmu.itb_walker.requestOrigin_Completed::Data            0                       # Table walker requests started/completed, data/inst (Count)
system.cpu.mmu.itb_walker.requestOrigin_Completed::Inst            0                       # Table walker requests started/completed, data/inst (Count)
system.cpu.mmu.itb_walker.requestOrigin_Completed::total            0                       # Table walker requests started/completed, data/inst (Count)
system.cpu.mmu.itb_walker.requestOrigin::total            0                       # Table walker requests started/completed, data/inst (Count)
system.cpu.mmu.itb_walker.power_state.pwrStateResidencyTicks::UNDEFINED   7425054500                       # Cumulative time (in ticks) in various power states (Tick)
system.cpu.mmu.l2_shared.instHits                   0                       # Inst hits (Count)
system.cpu.mmu.l2_shared.instMisses                 0                       # Inst misses (Count)
system.cpu.mmu.l2_shared.inserts                    0                       # Number of times an entry is inserted into the TLB (Count)
system.cpu.mmu.l2_shared.flushTlb                   0                       # Number of times complete TLB was flushed (Count)
system.cpu.mmu.l2_shared.flushTlbMva                0                       # Number of times TLB was flushed by MVA (Count)
system.cpu.mmu.l2_shared.flushTlbMvaAsid            0                       # Number of times TLB was flushed by MVA & ASID (Count)
system.cpu.mmu.l2_shared.flushTlbAsid               0                       # Number of times TLB was flushed by ASID (Count)
system.cpu.mmu.l2_shared.flushedEntries             0                       # Number of entries that have been flushed from TLB (Count)
system.cpu.mmu.l2_shared.instAccesses               0                       # Inst accesses (Count)
system.cpu.mmu.l2_shared.hits                       0                       # Total TLB (inst and data) hits (Count)
system.cpu.mmu.l2_shared.misses                     0                       # Total TLB (inst and data) misses (Count)
system.cpu.mmu.l2_shared.accesses                   0                       # Total TLB (inst and data) accesses (Count)
system.cpu.mmu.stage2_dtb.readHits                  0                       # Read hits (Count)
system.cpu.mmu.stage2_dtb.readMisses                0                       # Read misses (Count)
system.cpu.mmu.stage2_dtb.writeHits                 0                       # Write hits (Count)
system.cpu.mmu.stage2_dtb.writeMisses               0                       # Write misses (Count)
system.cpu.mmu.stage2_dtb.inserts                   0                       # Number of times an entry is inserted into the TLB (Count)
system.cpu.mmu.stage2_dtb.flushTlb                  0                       # Number of times complete TLB was flushed (Count)
system.cpu.mmu.stage2_dtb.flushTlbMva               0                       # Number of times TLB was flushed by MVA (Count)
system.cpu.mmu.stage2_dtb.flushTlbMvaAsid            0                       # Number of times TLB was flushed by MVA & ASID (Count)
system.cpu.mmu.stage2_dtb.flushTlbAsid              0                       # Number of times TLB was flushed by ASID (Count)
system.cpu.mmu.stage2_dtb.flushedEntries            0                       # Number of entries that have been flushed from TLB (Count)
system.cpu.mmu.stage2_dtb.readAccesses              0                       # Read accesses (Count)
system.cpu.mmu.stage2_dtb.writeAccesses             0                       # Write accesses (Count)
system.cpu.mmu.stage2_dtb.hits                      0                       # Total TLB (inst and data) hits (Count)
system.cpu.mmu.stage2_dtb.misses                    0                       # Total TLB (inst and data) misses (Count)
system.cpu.mmu.stage2_dtb.accesses                  0                       # Total TLB (inst and data) accesses (Count)
system.cpu.mmu.stage2_dtb_walker.walks              0                       # Table walker walks requested (Count)
system.cpu.mmu.stage2_dtb_walker.requestOrigin_Requested::Data            0                       # Table walker requests started/completed, data/inst (Count)
system.cpu.mmu.stage2_dtb_walker.requestOrigin_Requested::Inst            0                       # Table walker requests started/completed, data/inst (Count)
system.cpu.mmu.stage2_dtb_walker.requestOrigin_Requested::total            0                       # Table walker requests started/completed, data/inst (Count)
system.cpu.mmu.stage2_dtb_walker.requestOrigin_Completed::Data            0                       # Table walker requests started/completed, data/inst (Count)
system.cpu.mmu.stage2_dtb_walker.requestOrigin_Completed::Inst            0                       # Table walker requests started/completed, data/inst (Count)
system.cpu.mmu.stage2_dtb_walker.requestOrigin_Completed::total            0                       # Table walker requests started/completed, data/inst (Count)
system.cpu.mmu.stage2_dtb_walker.requestOrigin::total            0                       # Table walker requests started/completed, data/inst (Count)
system.cpu.mmu.stage2_dtb_walker.power_state.pwrStateResidencyTicks::UNDEFINED   7425054500                       # Cumulative time (in ticks) in various power states (Tick)
system.cpu.mmu.stage2_itb.instHits                  0                       # Inst hits (Count)
system.cpu.mmu.stage2_itb.instMisses                0                       # Inst misses (Count)
system.cpu.mmu.stage2_itb.inserts                   0                       # Number of times an entry is inserted into the TLB (Count)
system.cpu.mmu.stage2_itb.flushTlb                  0                       # Number of times complete TLB was flushed (Count)
system.cpu.mmu.stage2_itb.flushTlbMva               0                       # Number of times TLB was flushed by MVA (Count)
system.cpu.mmu.stage2_itb.flushTlbMvaAsid            0                       # Number of times TLB was flushed by MVA & ASID (Count)
system.cpu.mmu.stage2_itb.flushTlbAsid              0                       # Number of times TLB was flushed by ASID (Count)
system.cpu.mmu.stage2_itb.flushedEntries            0                       # Number of entries that have been flushed from TLB (Count)
system.cpu.mmu.stage2_itb.instAccesses              0                       # Inst accesses (Count)
system.cpu.mmu.stage2_itb.hits                      0                       # Total TLB (inst and data) hits (Count)
system.cpu.mmu.stage2_itb.misses                    0                       # Total TLB (inst and data) misses (Count)
system.cpu.mmu.stage2_itb.accesses                  0                       # Total TLB (inst and data) accesses (Count)
system.cpu.mmu.stage2_itb_walker.walks              0                       # Table walker walks requested (Count)
system.cpu.mmu.stage2_itb_walker.requestOrigin_Requested::Data            0                       # Table walker requests started/completed, data/inst (Count)
system.cpu.mmu.stage2_itb_walker.requestOrigin_Requested::Inst            0                       # Table walker requests started/completed, data/inst (Count)
system.cpu.mmu.stage2_itb_walker.requestOrigin_Requested::total            0                       # Table walker requests started/completed, data/inst (Count)
system.cpu.mmu.stage2_itb_walker.requestOrigin_Completed::Data            0                       # Table walker requests started/completed, data/inst (Count)
system.cpu.mmu.stage2_itb_walker.requestOrigin_Completed::Inst            0                       # Table walker requests started/completed, data/inst (Count)
system.cpu.mmu.stage2_itb_walker.requestOrigin_Completed::total            0                       # Table walker requests started/completed, data/inst (Count)
system.cpu.mmu.stage2_itb_walker.requestOrigin::total            0                       # Table walker requests started/completed, data/inst (Count)
system.cpu.mmu.stage2_itb_walker.power_state.pwrStateResidencyTicks::UNDEFINED   7425054500                       # Cumulative time (in ticks) in various power states (Tick)
system.cpu.power_state.pwrStateResidencyTicks::ON   7425054500                       # Cumulative time (in ticks) in various power states (Tick)
system.cpu.thread_0.numInsts                  9622812                       # Number of Instructions committed (Count)
system.cpu.thread_0.numOps                   10989188                       # Number of Ops committed (Count)
system.cpu.thread_0.numMemRefs                      0                       # Number of Memory References (Count)
system.cpu.workload.numSyscalls                    61                       # Number of system calls (Count)
system.cpu_clk_domain.clock                       500                       # Clock period in ticks (Tick)
system.cpu_voltage_domain.voltage                   1                       # Voltage in Volts (Volt)
system.l2.demandHits::cpu.inst                  18933                       # number of demand (read+write) hits (Count)
system.l2.demandHits::cpu.data                  16966                       # number of demand (read+write) hits (Count)
system.l2.demandHits::total                     35899                       # number of demand (read+write) hits (Count)
system.l2.overallHits::cpu.inst                 18933                       # number of overall hits (Count)
system.l2.overallHits::cpu.data                 16966                       # number of overall hits (Count)
system.l2.overallHits::total                    35899                       # number of overall hits (Count)
system.l2.demandMisses::cpu.inst                 2561                       # number of demand (read+write) misses (Count)
system.l2.demandMisses::cpu.data                 6741                       # number of demand (read+write) misses (Count)
system.l2.demandMisses::total                    9302                       # number of demand (read+write) misses (Count)
system.l2.overallMisses::cpu.inst                2561                       # number of overall misses (Count)
system.l2.overallMisses::cpu.data                6741                       # number of overall misses (Count)
system.l2.overallMisses::total                   9302                       # number of overall misses (Count)
system.l2.demandMissLatency::cpu.inst       195850500                       # number of demand (read+write) miss ticks (Tick)
system.l2.demandMissLatency::cpu.data       510110000                       # number of demand (read+write) miss ticks (Tick)
system.l2.demandMissLatency::total          705960500                       # number of demand (read+write) miss ticks (Tick)
system.l2.overallMissLatency::cpu.inst      195850500                       # number of overall miss ticks (Tick)
system.l2.overallMissLatency::cpu.data      510110000                       # number of overall miss ticks (Tick)
system.l2.overallMissLatency::total         705960500                       # number of overall miss ticks (Tick)
system.l2.demandAccesses::cpu.inst              21494                       # number of demand (read+write) accesses (Count)
system.l2.demandAccesses::cpu.data              23707                       # number of demand (read+write) accesses (Count)
system.l2.demandAccesses::total                 45201                       # number of demand (read+write) accesses (Count)
system.l2.overallAccesses::cpu.inst             21494                       # number of overall (read+write) accesses (Count)
system.l2.overallAccesses::cpu.data             23707                       # number of overall (read+write) accesses (Count)
system.l2.overallAccesses::total                45201                       # number of overall (read+write) accesses (Count)
system.l2.demandMissRate::cpu.inst           0.119150                       # miss rate for demand accesses (Ratio)
system.l2.demandMissRate::cpu.data           0.284346                       # miss rate for demand accesses (Ratio)
system.l2.demandMissRate::total              0.205792                       # miss rate for demand accesses (Ratio)
system.l2.overallMissRate::cpu.inst          0.119150                       # miss rate for overall accesses (Ratio)
system.l2.overallMissRate::cpu.data          0.284346                       # miss rate for overall accesses (Ratio)
system.l2.overallMissRate::total             0.205792                       # miss rate for overall accesses (Ratio)
system.l2.demandAvgMissLatency::cpu.inst 76474.228817                       # average overall miss latency in ticks ((Tick/Count))
system.l2.demandAvgMissLatency::cpu.data 75672.748850                       # average overall miss latency in ticks ((Tick/Count))
system.l2.demandAvgMissLatency::total    75893.410019                       # average overall miss latency in ticks ((Tick/Count))
system.l2.overallAvgMissLatency::cpu.inst 76474.228817                       # average overall miss latency ((Tick/Count))
system.l2.overallAvgMissLatency::cpu.data 75672.748850                       # average overall miss latency ((Tick/Count))
system.l2.overallAvgMissLatency::total   75893.410019                       # average overall miss latency ((Tick/Count))
system.l2.blockedCycles::no_mshrs                   0                       # number of cycles access was blocked (Cycle)
system.l2.blockedCycles::no_targets                 0                       # number of cycles access was blocked (Cycle)
system.l2.blockedCauses::no_mshrs                   0                       # number of times access was blocked (Count)
system.l2.blockedCauses::no_targets                 0                       # number of times access was blocked (Count)
system.l2.avgBlocked::no_mshrs                    nan                       # average number of cycles each access was blocked ((Cycle/Count))
system.l2.avgBlocked::no_targets                  nan                       # average number of cycles each access was blocked ((Cycle/Count))
system.l2.demandMshrHits::cpu.inst                  1                       # number of demand (read+write) MSHR hits (Count)
system.l2.demandMshrHits::total                     1                       # number of demand (read+write) MSHR hits (Count)
system.l2.overallMshrHits::cpu.inst                 1                       # number of overall MSHR hits (Count)
system.l2.overallMshrHits::total                    1                       # number of overall MSHR hits (Count)
system.l2.demandMshrMisses::cpu.inst             2560                       # number of demand (read+write) MSHR misses (Count)
system.l2.demandMshrMisses::cpu.data             6741                       # number of demand (read+write) MSHR misses (Count)
system.l2.demandMshrMisses::total                9301                       # number of demand (read+write) MSHR misses (Count)
system.l2.overallMshrMisses::cpu.inst            2560                       # number of overall MSHR misses (Count)
system.l2.overallMshrMisses::cpu.data            6741                       # number of overall MSHR misses (Count)
system.l2.overallMshrMisses::total               9301                       # number of overall MSHR misses (Count)
system.l2.demandMshrMissLatency::cpu.inst    170232000                       # number of demand (read+write) MSHR miss ticks (Tick)
system.l2.demandMshrMissLatency::cpu.data    442700000                       # number of demand (read+write) MSHR miss ticks (Tick)
system.l2.demandMshrMissLatency::total      612932000                       # number of demand (read+write) MSHR miss ticks (Tick)
system.l2.overallMshrMissLatency::cpu.inst    170232000                       # number of overall MSHR miss ticks (Tick)
system.l2.overallMshrMissLatency::cpu.data    442700000                       # number of overall MSHR miss ticks (Tick)
system.l2.overallMshrMissLatency::total     612932000                       # number of overall MSHR miss ticks (Tick)
system.l2.demandMshrMissRate::cpu.inst       0.119103                       # mshr miss ratio for demand accesses (Ratio)
system.l2.demandMshrMissRate::cpu.data       0.284346                       # mshr miss ratio for demand accesses (Ratio)
system.l2.demandMshrMissRate::total          0.205770                       # mshr miss ratio for demand accesses (Ratio)
system.l2.overallMshrMissRate::cpu.inst      0.119103                       # mshr miss ratio for overall accesses (Ratio)
system.l2.overallMshrMissRate::cpu.data      0.284346                       # mshr miss ratio for overall accesses (Ratio)
system.l2.overallMshrMissRate::total         0.205770                       # mshr miss ratio for overall accesses (Ratio)
system.l2.demandAvgMshrMissLatency::cpu.inst 66496.875000                       # average overall mshr miss latency ((Tick/Count))
system.l2.demandAvgMshrMissLatency::cpu.data 65672.748850                       # average overall mshr miss latency ((Tick/Count))
system.l2.demandAvgMshrMissLatency::total 65899.580690                       # average overall mshr miss latency ((Tick/Count))
system.l2.overallAvgMshrMissLatency::cpu.inst 66496.875000                       # average overall mshr miss latency ((Tick/Count))
system.l2.overallAvgMshrMissLatency::cpu.data 65672.748850                       # average overall mshr miss latency ((Tick/Count))
system.l2.overallAvgMshrMissLatency::total 65899.580690                       # average overall mshr miss latency ((Tick/Count))
system.l2.replacements                              0                       # number of replacements (Count)
system.l2.InvalidateReq.hits::cpu.data             12                       # number of InvalidateReq hits (Count)
system.l2.InvalidateReq.hits::total                12                       # number of InvalidateReq hits (Count)
system.l2.InvalidateReq.misses::cpu.data           66                       # number of InvalidateReq misses (Count)
system.l2.InvalidateReq.misses::total              66                       # number of InvalidateReq misses (Count)
system.l2.InvalidateReq.accesses::cpu.data           78                       # number of InvalidateReq accesses(hits+misses) (Count)
system.l2.InvalidateReq.accesses::total            78                       # number of InvalidateReq accesses(hits+misses) (Count)
system.l2.InvalidateReq.missRate::cpu.data     0.846154                       # miss rate for InvalidateReq accesses (Ratio)
system.l2.InvalidateReq.missRate::total      0.846154                       # miss rate for InvalidateReq accesses (Ratio)
system.l2.InvalidateReq.mshrMisses::cpu.data           66                       # number of InvalidateReq MSHR misses (Count)
system.l2.InvalidateReq.mshrMisses::total           66                       # number of InvalidateReq MSHR misses (Count)
system.l2.InvalidateReq.mshrMissLatency::cpu.data      1254000                       # number of InvalidateReq MSHR miss ticks (Tick)
system.l2.InvalidateReq.mshrMissLatency::total      1254000                       # number of InvalidateReq MSHR miss ticks (Tick)
system.l2.InvalidateReq.mshrMissRate::cpu.data     0.846154                       # mshr miss rate for InvalidateReq accesses (Ratio)
system.l2.InvalidateReq.mshrMissRate::total     0.846154                       # mshr miss rate for InvalidateReq accesses (Ratio)
system.l2.InvalidateReq.avgMshrMissLatency::cpu.data        19000                       # average InvalidateReq mshr miss latency ((Tick/Count))
system.l2.InvalidateReq.avgMshrMissLatency::total        19000                       # average InvalidateReq mshr miss latency ((Tick/Count))
system.l2.ReadCleanReq.hits::cpu.inst           18933                       # number of ReadCleanReq hits (Count)
system.l2.ReadCleanReq.hits::total              18933                       # number of ReadCleanReq hits (Count)
system.l2.ReadCleanReq.misses::cpu.inst          2561                       # number of ReadCleanReq misses (Count)
system.l2.ReadCleanReq.misses::total             2561                       # number of ReadCleanReq misses (Count)
system.l2.ReadCleanReq.missLatency::cpu.inst    195850500                       # number of ReadCleanReq miss ticks (Tick)
system.l2.ReadCleanReq.missLatency::total    195850500                       # number of ReadCleanReq miss ticks (Tick)
system.l2.ReadCleanReq.accesses::cpu.inst        21494                       # number of ReadCleanReq accesses(hits+misses) (Count)
system.l2.ReadCleanReq.accesses::total          21494                       # number of ReadCleanReq accesses(hits+misses) (Count)
system.l2.ReadCleanReq.missRate::cpu.inst     0.119150                       # miss rate for ReadCleanReq accesses (Ratio)
system.l2.ReadCleanReq.missRate::total       0.119150                       # miss rate for ReadCleanReq accesses (Ratio)
system.l2.ReadCleanReq.avgMissLatency::cpu.inst 76474.228817                       # average ReadCleanReq miss latency ((Tick/Count))
system.l2.ReadCleanReq.avgMissLatency::total 76474.228817                       # average ReadCleanReq miss latency ((Tick/Count))
system.l2.ReadCleanReq.mshrHits::cpu.inst            1                       # number of ReadCleanReq MSHR hits (Count)
system.l2.ReadCleanReq.mshrHits::total              1                       # number of ReadCleanReq MSHR hits (Count)
system.l2.ReadCleanReq.mshrMisses::cpu.inst         2560                       # number of ReadCleanReq MSHR misses (Count)
system.l2.ReadCleanReq.mshrMisses::total         2560                       # number of ReadCleanReq MSHR misses (Count)
system.l2.ReadCleanReq.mshrMissLatency::cpu.inst    170232000                       # number of ReadCleanReq MSHR miss ticks (Tick)
system.l2.ReadCleanReq.mshrMissLatency::total    170232000                       # number of ReadCleanReq MSHR miss ticks (Tick)
system.l2.ReadCleanReq.mshrMissRate::cpu.inst     0.119103                       # mshr miss rate for ReadCleanReq accesses (Ratio)
system.l2.ReadCleanReq.mshrMissRate::total     0.119103                       # mshr miss rate for ReadCleanReq accesses (Ratio)
system.l2.ReadCleanReq.avgMshrMissLatency::cpu.inst 66496.875000                       # average ReadCleanReq mshr miss latency ((Tick/Count))
system.l2.ReadCleanReq.avgMshrMissLatency::total 66496.875000                       # average ReadCleanReq mshr miss latency ((Tick/Count))
system.l2.ReadExReq.hits::cpu.data                819                       # number of ReadExReq hits (Count)
system.l2.ReadExReq.hits::total                   819                       # number of ReadExReq hits (Count)
system.l2.ReadExReq.misses::cpu.data             3856                       # number of ReadExReq misses (Count)
system.l2.ReadExReq.misses::total                3856                       # number of ReadExReq misses (Count)
system.l2.ReadExReq.missLatency::cpu.data    293080000                       # number of ReadExReq miss ticks (Tick)
system.l2.ReadExReq.missLatency::total      293080000                       # number of ReadExReq miss ticks (Tick)
system.l2.ReadExReq.accesses::cpu.data           4675                       # number of ReadExReq accesses(hits+misses) (Count)
system.l2.ReadExReq.accesses::total              4675                       # number of ReadExReq accesses(hits+misses) (Count)
system.l2.ReadExReq.missRate::cpu.data       0.824813                       # miss rate for ReadExReq accesses (Ratio)
system.l2.ReadExReq.missRate::total          0.824813                       # miss rate for ReadExReq accesses (Ratio)
system.l2.ReadExReq.avgMissLatency::cpu.data 76006.224066                       # average ReadExReq miss latency ((Tick/Count))
system.l2.ReadExReq.avgMissLatency::total 76006.224066                       # average ReadExReq miss latency ((Tick/Count))
system.l2.ReadExReq.mshrMisses::cpu.data         3856                       # number of ReadExReq MSHR misses (Count)
system.l2.ReadExReq.mshrMisses::total            3856                       # number of ReadExReq MSHR misses (Count)
system.l2.ReadExReq.mshrMissLatency::cpu.data    254520000                       # number of ReadExReq MSHR miss ticks (Tick)
system.l2.ReadExReq.mshrMissLatency::total    254520000                       # number of ReadExReq MSHR miss ticks (Tick)
system.l2.ReadExReq.mshrMissRate::cpu.data     0.824813                       # mshr miss rate for ReadExReq accesses (Ratio)
system.l2.ReadExReq.mshrMissRate::total      0.824813                       # mshr miss rate for ReadExReq accesses (Ratio)
system.l2.ReadExReq.avgMshrMissLatency::cpu.data 66006.224066                       # average ReadExReq mshr miss latency ((Tick/Count))
system.l2.ReadExReq.avgMshrMissLatency::total 66006.224066                       # average ReadExReq mshr miss latency ((Tick/Count))
system.l2.ReadSharedReq.hits::cpu.data          16147                       # number of ReadSharedReq hits (Count)
system.l2.ReadSharedReq.hits::total             16147                       # number of ReadSharedReq hits (Count)
system.l2.ReadSharedReq.misses::cpu.data         2885                       # number of ReadSharedReq misses (Count)
system.l2.ReadSharedReq.misses::total            2885                       # number of ReadSharedReq misses (Count)
system.l2.ReadSharedReq.missLatency::cpu.data    217030000                       # number of ReadSharedReq miss ticks (Tick)
system.l2.ReadSharedReq.missLatency::total    217030000                       # number of ReadSharedReq miss ticks (Tick)
system.l2.ReadSharedReq.accesses::cpu.data        19032                       # number of ReadSharedReq accesses(hits+misses) (Count)
system.l2.ReadSharedReq.accesses::total         19032                       # number of ReadSharedReq accesses(hits+misses) (Count)
system.l2.ReadSharedReq.missRate::cpu.data     0.151587                       # miss rate for ReadSharedReq accesses (Ratio)
system.l2.ReadSharedReq.missRate::total      0.151587                       # miss rate for ReadSharedReq accesses (Ratio)
system.l2.ReadSharedReq.avgMissLatency::cpu.data 75227.036395                       # average ReadSharedReq miss latency ((Tick/Count))
system.l2.ReadSharedReq.avgMissLatency::total 75227.036395                       # average ReadSharedReq miss latency ((Tick/Count))
system.l2.ReadSharedReq.mshrMisses::cpu.data         2885                       # number of ReadSharedReq MSHR misses (Count)
system.l2.ReadSharedReq.mshrMisses::total         2885                       # number of ReadSharedReq MSHR misses (Count)
system.l2.ReadSharedReq.mshrMissLatency::cpu.data    188180000                       # number of ReadSharedReq MSHR miss ticks (Tick)
system.l2.ReadSharedReq.mshrMissLatency::total    188180000                       # number of ReadSharedReq MSHR miss ticks (Tick)
system.l2.ReadSharedReq.mshrMissRate::cpu.data     0.151587                       # mshr miss rate for ReadSharedReq accesses (Ratio)
system.l2.ReadSharedReq.mshrMissRate::total     0.151587                       # mshr miss rate for ReadSharedReq accesses (Ratio)
system.l2.ReadSharedReq.avgMshrMissLatency::cpu.data 65227.036395                       # average ReadSharedReq mshr miss latency ((Tick/Count))
system.l2.ReadSharedReq.avgMshrMissLatency::total 65227.036395                       # average ReadSharedReq mshr miss latency ((Tick/Count))
system.l2.WritebackClean.hits::writebacks        21235                       # number of WritebackClean hits (Count)
system.l2.WritebackClean.hits::total            21235                       # number of WritebackClean hits (Count)
system.l2.WritebackClean.accesses::writebacks        21235                       # number of WritebackClean accesses(hits+misses) (Count)
system.l2.WritebackClean.accesses::total        21235                       # number of WritebackClean accesses(hits+misses) (Count)
system.l2.WritebackDirty.hits::writebacks         9272                       # number of WritebackDirty hits (Count)
system.l2.WritebackDirty.hits::total             9272                       # number of WritebackDirty hits (Count)
system.l2.WritebackDirty.accesses::writebacks         9272                       # number of WritebackDirty accesses(hits+misses) (Count)
system.l2.WritebackDirty.accesses::total         9272                       # number of WritebackDirty accesses(hits+misses) (Count)
system.l2.power_state.pwrStateResidencyTicks::UNDEFINED   7425054500                       # Cumulative time (in ticks) in various power states (Tick)
system.l2.tags.tagsInUse                  6750.542594                       # Average ticks per tags in use ((Tick/Count))
system.l2.tags.totalRefs                        89206                       # Total number of references to valid blocks. (Count)
[...]
system.mem_ctrls.dram.perBankWrBursts::10            0                       # Per bank write bursts (Count)
system.mem_ctrls.dram.perBankWrBursts::11            0                       # Per bank write bursts (Count)
system.mem_ctrls.dram.perBankWrBursts::12            0                       # Per bank write bursts (Count)
system.mem_ctrls.dram.perBankWrBursts::13            0                       # Per bank write bursts (Count)
system.mem_ctrls.dram.perBankWrBursts::14            0                       # Per bank write bursts (Count)
system.mem_ctrls.dram.perBankWrBursts::15            0                       # Per bank write bursts (Count)
system.mem_ctrls.dram.totQLat                57397500                       # Total ticks spent queuing (Tick)
system.mem_ctrls.dram.totBusLat              46500000                       # Total ticks spent in databus transfers (Tick)
system.mem_ctrls.dram.totMemAccLat          231772500                       # Total ticks spent from burst creation until serviced by the DRAM (Tick)
system.mem_ctrls.dram.avgQLat                 6171.77                       # Average queueing delay per DRAM burst ((Tick/Count))
system.mem_ctrls.dram.avgBusLat               5000.00                       # Average bus latency per DRAM burst ((Tick/Count))
system.mem_ctrls.dram.avgMemAccLat           24921.77                       # Average memory access latency per DRAM burst ((Tick/Count))
system.mem_ctrls.dram.readRowHits                7954                       # Number of row buffer hits during reads (Count)
system.mem_ctrls.dram.writeRowHits                  0                       # Number of row buffer hits during writes (Count)
system.mem_ctrls.dram.readRowHitRate            85.53                       # Row buffer hit rate for reads (Ratio)
system.mem_ctrls.dram.writeRowHitRate             nan                       # Row buffer hit rate for writes (Ratio)
system.mem_ctrls.dram.bytesPerActivate::samples         1336                       # Bytes accessed per row activation (Byte)
system.mem_ctrls.dram.bytesPerActivate::mean   444.215569                       # Bytes accessed per row activation (Byte)
system.mem_ctrls.dram.bytesPerActivate::gmean   275.369908                       # Bytes accessed per row activation (Byte)
system.mem_ctrls.dram.bytesPerActivate::stdev   375.248402                       # Bytes accessed per row activation (Byte)
system.mem_ctrls.dram.bytesPerActivate::0-127          321     24.03%     24.03% # Bytes accessed per row activation (Byte)
system.mem_ctrls.dram.bytesPerActivate::128-255          259     19.39%     43.41% # Bytes accessed per row activation (Byte)
system.mem_ctrls.dram.bytesPerActivate::256-383          171     12.80%     56.21% # Bytes accessed per row activation (Byte)
system.mem_ctrls.dram.bytesPerActivate::384-511           81      6.06%     62.28% # Bytes accessed per row activation (Byte)
system.mem_ctrls.dram.bytesPerActivate::512-639           52      3.89%     66.17% # Bytes accessed per row activation (Byte)
system.mem_ctrls.dram.bytesPerActivate::640-767           50      3.74%     69.91% # Bytes accessed per row activation (Byte)
system.mem_ctrls.dram.bytesPerActivate::768-895           82      6.14%     76.05% # Bytes accessed per row activation (Byte)
system.mem_ctrls.dram.bytesPerActivate::896-1023           56      4.19%     80.24% # Bytes accessed per row activation (Byte)
system.mem_ctrls.dram.bytesPerActivate::1024-1151          264     19.76%    100.00% # Bytes accessed per row activation (Byte)
system.mem_ctrls.dram.bytesPerActivate::total         1336                       # Bytes accessed per row activation (Byte)
system.mem_ctrls.dram.bytesRead                595200                       # Total bytes read (Byte)
system.mem_ctrls.dram.bytesWritten                  0                       # Total bytes written (Byte)
system.mem_ctrls.dram.avgRdBW               80.161028                       # Average DRAM read bandwidth in MiBytes/s ((Byte/Second))
system.mem_ctrls.dram.avgWrBW                       0                       # Average DRAM write bandwidth in MiBytes/s ((Byte/Second))
system.mem_ctrls.dram.peakBW                 12800.00                       # Theoretical peak bandwidth in MiByte/s ((Byte/Second))
system.mem_ctrls.dram.busUtil                    0.63                       # Data bus utilization in percentage (Ratio)
system.mem_ctrls.dram.busUtilRead                0.63                       # Data bus utilization in percentage for reads (Ratio)
system.mem_ctrls.dram.busUtilWrite               0.00                       # Data bus utilization in percentage for writes (Ratio)
system.mem_ctrls.dram.pageHitRate               85.53                       # Row buffer hit rate, read and write combined (Ratio)
system.mem_ctrls.dram.power_state.pwrStateResidencyTicks::UNDEFINED   7425054500                       # Cumulative time (in ticks) in various power states (Tick)
system.mem_ctrls.dram.rank0.actEnergy         4591020                       # Energy for activate commands per rank (pJ) (Joule)
system.mem_ctrls.dram.rank0.preEnergy         2428800                       # Energy for precharge commands per rank (pJ) (Joule)
system.mem_ctrls.dram.rank0.readEnergy       33979260                       # Energy for read commands per rank (pJ) (Joule)
system.mem_ctrls.dram.rank0.writeEnergy             0                       # Energy for write commands per rank (pJ) (Joule)
system.mem_ctrls.dram.rank0.refreshEnergy 585751920.000000                       # Energy for refresh commands per rank (pJ) (Joule)
system.mem_ctrls.dram.rank0.actBackEnergy    785601930                       # Energy for active background per rank (pJ) (Joule)
system.mem_ctrls.dram.rank0.preBackEnergy   2189661600                       # Energy for precharge background per rank (pJ) (Joule)
system.mem_ctrls.dram.rank0.actPowerDownEnergy            0                       # Energy for active power-down per rank (pJ) (Joule)
system.mem_ctrls.dram.rank0.prePowerDownEnergy            0                       # Energy for precharge power-down per rank (pJ) (Joule)
system.mem_ctrls.dram.rank0.selfRefreshEnergy            0                       # Energy for self refresh per rank (pJ) (Joule)
system.mem_ctrls.dram.rank0.totalEnergy    3602014530                       # Total energy per rank (pJ) (Joule)
system.mem_ctrls.dram.rank0.averagePower   485.116241                       # Core power per rank (mW) (Watt)
system.mem_ctrls.dram.rank0.totalIdleTime            0                       # Total Idle time Per DRAM Rank (Tick)
system.mem_ctrls.dram.rank0.pwrStateTime::IDLE   5684330750                       # Time in different power states (Tick)
system.mem_ctrls.dram.rank0.pwrStateTime::REF    247780000                       # Time in different power states (Tick)
system.mem_ctrls.dram.rank0.pwrStateTime::SREF            0                       # Time in different power states (Tick)
system.mem_ctrls.dram.rank0.pwrStateTime::PRE_PDN            0                       # Time in different power states (Tick)
system.mem_ctrls.dram.rank0.pwrStateTime::ACT   1492943750                       # Time in different power states (Tick)
system.mem_ctrls.dram.rank0.pwrStateTime::ACT_PDN            0                       # Time in different power states (Tick)
system.mem_ctrls.dram.rank1.actEnergy         5019420                       # Energy for activate commands per rank (pJ) (Joule)
system.mem_ctrls.dram.rank1.preEnergy         2641320                       # Energy for precharge commands per rank (pJ) (Joule)
system.mem_ctrls.dram.rank1.readEnergy       32422740                       # Energy for read commands per rank (pJ) (Joule)
system.mem_ctrls.dram.rank1.writeEnergy             0                       # Energy for write commands per rank (pJ) (Joule)
system.mem_ctrls.dram.rank1.refreshEnergy 585751920.000000                       # Energy for refresh commands per rank (pJ) (Joule)
system.mem_ctrls.dram.rank1.actBackEnergy    728982120                       # Energy for active background per rank (pJ) (Joule)
system.mem_ctrls.dram.rank1.preBackEnergy   2237341440                       # Energy for precharge background per rank (pJ) (Joule)
system.mem_ctrls.dram.rank1.actPowerDownEnergy            0                       # Energy for active power-down per rank (pJ) (Joule)
system.mem_ctrls.dram.rank1.prePowerDownEnergy            0                       # Energy for precharge power-down per rank (pJ) (Joule)
system.mem_ctrls.dram.rank1.selfRefreshEnergy            0                       # Energy for self refresh per rank (pJ) (Joule)
system.mem_ctrls.dram.rank1.totalEnergy    3592158960                       # Total energy per rank (pJ) (Joule)
system.mem_ctrls.dram.rank1.averagePower   483.788901                       # Core power per rank (mW) (Watt)
system.mem_ctrls.dram.rank1.totalIdleTime            0                       # Total Idle time Per DRAM Rank (Tick)
system.mem_ctrls.dram.rank1.pwrStateTime::IDLE   5809155500                       # Time in different power states (Tick)
system.mem_ctrls.dram.rank1.pwrStateTime::REF    247780000                       # Time in different power states (Tick)
system.mem_ctrls.dram.rank1.pwrStateTime::SREF            0                       # Time in different power states (Tick)
system.mem_ctrls.dram.rank1.pwrStateTime::PRE_PDN            0                       # Time in different power states (Tick)
system.mem_ctrls.dram.rank1.pwrStateTime::ACT   1368119000                       # Time in different power states (Tick)
system.mem_ctrls.dram.rank1.pwrStateTime::ACT_PDN            0                       # Time in different power states (Tick)
system.mem_ctrls.power_state.pwrStateResidencyTicks::UNDEFINED   7425054500                       # Cumulative time (in ticks) in various power states (Tick)
system.membus.transDist::ReadResp                5444                       # Transaction distribution (Count)
system.membus.transDist::ReadExReq               3856                       # Transaction distribution (Count)
system.membus.transDist::ReadExResp              3856                       # Transaction distribution (Count)
system.membus.transDist::ReadSharedReq           5444                       # Transaction distribution (Count)
system.membus.transDist::InvalidateReq             66                       # Transaction distribution (Count)
system.membus.pktCount_system.l2.mem_side_port::system.mem_ctrls.port        18666                       # Packet count per connected requestor and responder (Count)
system.membus.pktCount::total                   18666                       # Packet count per connected requestor and responder (Count)
system.membus.pktSize_system.l2.mem_side_port::system.mem_ctrls.port       595200                       # Cumulative packet size per connected requestor and responder (Byte)
system.membus.pktSize::total                   595200                       # Cumulative packet size per connected requestor and responder (Byte)
system.membus.snoops                                0                       # Total snoops (Count)
system.membus.snoopTraffic                          0                       # Total snoop traffic (Byte)
system.membus.snoopFanout::samples               9366                       # Request fanout histogram (Count)
system.membus.snoopFanout::mean                     0                       # Request fanout histogram (Count)
system.membus.snoopFanout::stdev                    0                       # Request fanout histogram (Count)
system.membus.snoopFanout::underflows               0      0.00%      0.00% # Request fanout histogram (Count)
system.membus.snoopFanout::0                     9366    100.00%    100.00% # Request fanout histogram (Count)
system.membus.snoopFanout::1                        0      0.00%    100.00% # Request fanout histogram (Count)
system.membus.snoopFanout::overflows                0      0.00%    100.00% # Request fanout histogram (Count)
system.membus.snoopFanout::min_value                0                       # Request fanout histogram (Count)
system.membus.snoopFanout::max_value                0                       # Request fanout histogram (Count)
system.membus.snoopFanout::total                 9366                       # Request fanout histogram (Count)
system.membus.power_state.pwrStateResidencyTicks::UNDEFINED   7425054500                       # Cumulative time (in ticks) in various power states (Tick)
system.membus.reqLayer0.occupancy            11131000                       # Layer occupancy (ticks) (Tick)
system.membus.reqLayer0.utilization               0.0                       # Layer utilization (Ratio)
system.membus.respLayer1.occupancy           49195750                       # Layer occupancy (ticks) (Tick)
system.membus.respLayer1.utilization              0.0                       # Layer utilization (Ratio)
system.membus.snoop_filter.totRequests           9366                       # Total number of requests made to the snoop filter. (Count)
system.membus.snoop_filter.hitSingleRequests            0                       # Number of requests hitting in the snoop filter with a single holder of the requested data. (Count)
system.membus.snoop_filter.hitMultiRequests            0                       # Number of requests hitting in the snoop filter with multiple (>1) holders of the requested data. (Count)
system.membus.snoop_filter.totSnoops                0                       # Total number of snoops made to the snoop filter. (Count)
system.membus.snoop_filter.hitSingleSnoops            0                       # Number of snoops hitting in the snoop filter with a single holder of the requested data. (Count)
system.membus.snoop_filter.hitMultiSnoops            0                       # Number of snoops hitting in the snoop filter with multiple (>1) holders of the requested data. (Count)
system.tol2bus.transDist::ReadResp              40525                       # Transaction distribution (Count)
system.tol2bus.transDist::WritebackDirty         9272                       # Transaction distribution (Count)
system.tol2bus.transDist::WritebackClean        21237                       # Transaction distribution (Count)
system.tol2bus.transDist::CleanEvict            13489                       # Transaction distribution (Count)
system.tol2bus.transDist::ReadExReq              4675                       # Transaction distribution (Count)
system.tol2bus.transDist::ReadExResp             4675                       # Transaction distribution (Count)
system.tol2bus.transDist::ReadCleanReq          21494                       # Transaction distribution (Count)
system.tol2bus.transDist::ReadSharedReq         19032                       # Transaction distribution (Count)
system.tol2bus.transDist::InvalidateReq            78                       # Transaction distribution (Count)
system.tol2bus.transDist::InvalidateResp           78                       # Transaction distribution (Count)
system.tol2bus.pktCount_system.cpu.icache.mem_side_port::system.l2.cpu_side_port        64224                       # Packet count per connected requestor and responder (Count)
system.tol2bus.pktCount_system.cpu.dcache.mem_side_port::system.l2.cpu_side_port        70331                       # Packet count per connected requestor and responder (Count)
system.tol2bus.pktCount::total                 134555                       # Packet count per connected requestor and responder (Count)
system.tol2bus.pktSize_system.cpu.icache.mem_side_port::system.l2.cpu_side_port      2734720                       # Cumulative packet size per connected requestor and responder (Byte)
system.tol2bus.pktSize_system.cpu.dcache.mem_side_port::system.l2.cpu_side_port      2110656                       # Cumulative packet size per connected requestor and responder (Byte)
system.tol2bus.pktSize::total                 4845376                       # Cumulative packet size per connected requestor and responder (Byte)
system.tol2bus.snoops                               0                       # Total snoops (Count)
system.tol2bus.snoopTraffic                         0                       # Total snoop traffic (Byte)
system.tol2bus.snoopFanout::samples             45279                       # Request fanout histogram (Count)
system.tol2bus.snoopFanout::mean             0.000088                       # Request fanout histogram (Count)
system.tol2bus.snoopFanout::stdev            0.009399                       # Request fanout histogram (Count)
system.tol2bus.snoopFanout::underflows              0      0.00%      0.00% # Request fanout histogram (Count)
system.tol2bus.snoopFanout::0                   45275     99.99%     99.99% # Request fanout histogram (Count)
system.tol2bus.snoopFanout::1                       4      0.01%    100.00% # Request fanout histogram (Count)
system.tol2bus.snoopFanout::2                       0      0.00%    100.00% # Request fanout histogram (Count)
system.tol2bus.snoopFanout::overflows               0      0.00%    100.00% # Request fanout histogram (Count)
system.tol2bus.snoopFanout::min_value               0                       # Request fanout histogram (Count)
system.tol2bus.snoopFanout::max_value               1                       # Request fanout histogram (Count)
system.tol2bus.snoopFanout::total               45279                       # Request fanout histogram (Count)
system.tol2bus.power_state.pwrStateResidencyTicks::UNDEFINED   7425054500                       # Cumulative time (in ticks) in various power states (Tick)
system.tol2bus.reqLayer0.occupancy           75147500                       # Layer occupancy (ticks) (Tick)
system.tol2bus.reqLayer0.utilization              0.0                       # Layer utilization (Ratio)
system.tol2bus.respLayer0.occupancy          32239999                       # Layer occupancy (ticks) (Tick)
system.tol2bus.respLayer0.utilization             0.0                       # Layer utilization (Ratio)
system.tol2bus.respLayer1.occupancy          35599999                       # Layer occupancy (ticks) (Tick)
system.tol2bus.respLayer1.utilization             0.0                       # Layer utilization (Ratio)
system.tol2bus.snoop_filter.totRequests         89277                       # Total number of requests made to the snoop filter. (Count)
system.tol2bus.snoop_filter.hitSingleRequests        43999                       # Number of requests hitting in the snoop filter with a single holder of the requested data. (Count)
system.tol2bus.snoop_filter.hitMultiRequests            3                       # Number of requests hitting in the snoop filter with multiple (>1) holders of the requested data. (Count)
system.tol2bus.snoop_filter.totSnoops               0                       # Total number of snoops made to the snoop filter. (Count)
system.tol2bus.snoop_filter.hitSingleSnoops            0                       # Number of snoops hitting in the snoop filter with a single holder of the requested data. (Count)
system.tol2bus.snoop_filter.hitMultiSnoops            0                       # Number of snoops hitting in the snoop filter with multiple (>1) holders of the requested data. (Count)
system.voltage_domain.voltage                       1                       # Voltage in Volts (Volt)
system.workload.inst.arm                            0                       # number of arm instructions executed (Count)
system.workload.inst.quiesce                        0                       # number of quiesce instructions executed (Count)
system.cpu.idleCycles                         1486345                       # Total number of cycles that the object has spent stopped (Unspecified)
system.cpu.tickCycles                        13363764                       # Number of cycles that the object actually ticked (Unspecified)

---------- End Simulation Statistics   ----------
