
---------- Begin Simulation Statistics ----------
simSeconds                                   0.106666                       # Number of seconds simulated (Second)
simTicks                                 106665607000                       # Number of ticks simulated (Tick)
finalTick                                106665607000                       # Number of ticks from beginning of simulation (restored from checkpoints and never reset) (Tick)
simFreq                                  1000000000000                       # The number of ticks per simulated second ((Tick/Second))
hostSeconds                                    395.43                       # Real time elapsed on the host (Second)
hostTickRate                                269748974                       # The number of ticks simulated per host second (ticks/s) ((Tick/Second))
hostMemory                                    8727540                       # Number of bytes of host memory used (Byte)
simInsts                                     10000000                       # Number of instructions simulated (Count)
simOps                                       22809759                       # Number of ops (including micro ops) simulated (Count)
hostInstRate                                    25289                       # Simulator instruction rate (inst/s) ((Count/Second))
hostOpRate                                      57684                       # Simulator op (including micro ops) rate (op/s) ((Count/Second))
system.clk_domain.clock                          1000                       # Clock period in ticks (Tick)
system.cpu.numCycles                        213331214                       # Number of cpu cycles simulated (Cycle)
system.cpu.numWorkItemsStarted                      0                       # Number of work items this cpu started (Count)
system.cpu.numWorkItemsCompleted                    0                       # Number of work items this cpu completed (Count)
system.cpu.numInsts                          10000000                       # Number of instructions committed (Count)
system.cpu.numOps                            22809759                       # Number of ops (including micro ops) committed (Count)
system.cpu.numDiscardedOps                      29691                       # Number of ops (including micro ops) which were discarded before commit (Count)
system.cpu.numFetchSuspends                         0                       # Number of times Execute suspended instruction fetching (Count)
system.cpu.cpi                              21.333121                       # CPI: cycles per instruction ((Cycle/Count))
system.cpu.ipc                               0.046875                       # IPC: instructions per cycle ((Count/Cycle))
system.cpu.committedInstType_0::No_OpClass           18      0.00%      0.00% # Class of committed instruction (Count)
system.cpu.committedInstType_0::IntAlu        8547083     37.47%     37.47% # Class of committed instruction (Count)
system.cpu.committedInstType_0::IntMult            35      0.00%     37.47% # Class of committed instruction (Count)
system.cpu.committedInstType_0::IntDiv              3      0.00%     37.47% # Class of committed instruction (Count)
system.cpu.committedInstType_0::FloatAdd            0      0.00%     37.47% # Class of committed instruction (Count)
system.cpu.committedInstType_0::FloatCmp            2      0.00%     37.47% # Class of committed instruction (Count)
system.cpu.committedInstType_0::FloatCvt            0      0.00%     37.47% # Class of committed instruction (Count)
system.cpu.committedInstType_0::FloatMult            0      0.00%     37.47% # Class of committed instruction (Count)
system.cpu.committedInstType_0::FloatMultAcc            0      0.00%     37.47% # Class of committed instruction (Count)
system.cpu.committedInstType_0::FloatDiv            0      0.00%     37.47% # Class of committed instruction (Count)
system.cpu.committedInstType_0::FloatMisc            5      0.00%     37.47% # Class of committed instruction (Count)
system.cpu.committedInstType_0::FloatSqrt            0      0.00%     37.47% # Class of committed instruction (Count)
system.cpu.committedInstType_0::SimdAdd            50      0.00%     37.47% # Class of committed instruction (Count)
system.cpu.committedInstType_0::SimdAddAcc            0      0.00%     37.47% # Class of committed instruction (Count)
system.cpu.committedInstType_0::SimdAlu            75      0.00%     37.47% # Class of committed instruction (Count)
system.cpu.committedInstType_0::SimdCmp            72      0.00%     37.47% # Class of committed instruction (Count)
system.cpu.committedInstType_0::SimdCvt             0      0.00%     37.47% # Class of committed instruction (Count)
system.cpu.committedInstType_0::SimdMisc           50      0.00%     37.47% # Class of committed instruction (Count)
system.cpu.committedInstType_0::SimdMult            0      0.00%     37.47% # Class of committed instruction (Count)
system.cpu.committedInstType_0::SimdMultAcc            0      0.00%     37.47% # Class of committed instruction (Count)
system.cpu.committedInstType_0::SimdShift            0      0.00%     37.47% # Class of committed instruction (Count)
system.cpu.committedInstType_0::SimdShiftAcc            0      0.00%     37.47% # Class of committed instruction (Count)
system.cpu.committedInstType_0::SimdDiv             0      0.00%     37.47% # Class of committed instruction (Count)
system.cpu.committedInstType_0::SimdSqrt            0      0.00%     37.47% # Class of committed instruction (Count)
system.cpu.committedInstType_0::SimdFloatAdd            0      0.00%     37.47% # Class of committed instruction (Count)
system.cpu.committedInstType_0::SimdFloatAlu            0      0.00%     37.47% # Class of committed instruction (Count)
system.cpu.committedInstType_0::SimdFloatCmp            0      0.00%     37.47% # Class of committed instruction (Count)
system.cpu.committedInstType_0::SimdFloatCvt            0      0.00%     37.47% # Class of committed instruction (Count)
system.cpu.committedInstType_0::SimdFloatDiv            0      0.00%     37.47% # Class of committed instruction (Count)
system.cpu.committedInstType_0::SimdFloatMisc            0      0.00%     37.47% # Class of committed instruction (Count)
system.cpu.committedInstType_0::SimdFloatMult            0      0.00%     37.47% # Class of committed instruction (Count)
system.cpu.committedInstType_0::SimdFloatMultAcc            0      0.00%     37.47% # Class of committed instruction (Count)
system.cpu.committedInstType_0::SimdFloatSqrt            0      0.00%     37.47% # Class of committed instruction (Count)
system.cpu.committedInstType_0::SimdReduceAdd            0      0.00%     37.47% # Class of committed instruction (Count)
system.cpu.committedInstType_0::SimdReduceAlu            0      0.00%     37.47% # Class of committed instruction (Count)
system.cpu.committedInstType_0::SimdReduceCmp            0      0.00%     37.47% # Class of committed instruction (Count)
system.cpu.committedInstType_0::SimdFloatReduceAdd            0      0.00%     37.47% # Class of committed instruction (Count)
system.cpu.committedInstType_0::SimdFloatReduceCmp            0      0.00%     37.47% # Class of committed instruction (Count)
system.cpu.committedInstType_0::SimdAes             0      0.00%     37.47% # Class of committed instruction (Count)
system.cpu.committedInstType_0::SimdAesMix            0      0.00%     37.47% # Class of committed instruction (Count)
system.cpu.committedInstType_0::SimdSha1Hash            0      0.00%     37.47% # Class of committed instruction (Count)
system.cpu.committedInstType_0::SimdSha1Hash2            0      0.00%     37.47% # Class of committed instruction (Count)
system.cpu.committedInstType_0::SimdSha256Hash            0      0.00%     37.47% # Class of committed instruction (Count)
system.cpu.committedInstType_0::SimdSha256Hash2            0      0.00%     37.47% # Class of committed instruction (Count)
system.cpu.committedInstType_0::SimdShaSigma2            0      0.00%     37.47% # Class of committed instruction (Count)
system.cpu.committedInstType_0::SimdShaSigma3            0      0.00%     37.47% # Class of committed instruction (Count)
system.cpu.committedInstType_0::SimdPredAlu            0      0.00%     37.47% # Class of committed instruction (Count)
system.cpu.committedInstType_0::MemRead          1635      0.01%     37.48% # Class of committed instruction (Count)
system.cpu.committedInstType_0::MemWrite     14260731     62.52%    100.00% # Class of committed instruction (Count)
system.cpu.committedInstType_0::FloatMemRead            0      0.00%    100.00% # Class of committed instruction (Count)
system.cpu.committedInstType_0::FloatMemWrite            0      0.00%    100.00% # Class of committed instruction (Count)
system.cpu.committedInstType_0::IprAccess            0      0.00%    100.00% # Class of committed instruction (Count)
system.cpu.committedInstType_0::InstPrefetch            0      0.00%    100.00% # Class of committed instruction (Count)
system.cpu.committedInstType_0::total        22809759                       # Class of committed instruction (Count)
system.cpu.branchPred.lookups                  715350                       # Number of BP lookups (Count)
system.cpu.branchPred.condPredicted            714151                       # Number of conditional branches predicted (Count)
system.cpu.branchPred.condIncorrect               636                       # Number of conditional branches incorrect (Count)
system.cpu.branchPred.BTBLookups               713151                       # Number of BTB lookups (Count)
system.cpu.branchPred.BTBHits                  712219                       # Number of BTB hits (Count)
system.cpu.branchPred.BTBHitRatio            0.998693                       # BTB Hit Ratio (Ratio)
system.cpu.branchPred.RASUsed                     368                       # Number of times the RAS was used to get a target. (Count)
system.cpu.branchPred.RASIncorrect                 10                       # Number of incorrect RAS predictions. (Count)
system.cpu.branchPred.indirectLookups             157                       # Number of indirect predictor lookups. (Count)
system.cpu.branchPred.indirectHits                 29                       # Number of indirect target hits. (Count)
system.cpu.branchPred.indirectMisses              128                       # Number of indirect misses. (Count)
system.cpu.branchPred.indirectMispredicted           65                       # Number of mispredicted indirect branches. (Count)
system.cpu.constantVU.cvuLoadLookups                0                       # Number of CVU Load Lookups (Count)
system.cpu.constantVU.cvuStoreLookups        14232930                       # Number of CVU Store Lookups (Count)
system.cpu.constantVU.loadMatched                   0                       # Number of loads that matched (Count)
system.cpu.constantVU.loadMatchedIncorrect     14232930                       # Number of loads that did not matched (Count)
system.cpu.dcache.demandHits::cpu.data       11388239                       # number of demand (read+write) hits (Count)
system.cpu.dcache.demandHits::total          11388239                       # number of demand (read+write) hits (Count)
system.cpu.dcache.overallHits::cpu.data      11388263                       # number of overall hits (Count)
system.cpu.dcache.overallHits::total         11388263                       # number of overall hits (Count)
system.cpu.dcache.demandMisses::cpu.data      2846534                       # number of demand (read+write) misses (Count)
system.cpu.dcache.demandMisses::total         2846534                       # number of demand (read+write) misses (Count)
system.cpu.dcache.overallMisses::cpu.data      2846536                       # number of overall misses (Count)
system.cpu.dcache.overallMisses::total        2846536                       # number of overall misses (Count)
system.cpu.dcache.demandMissLatency::cpu.data 197122758500                       # number of demand (read+write) miss ticks (Tick)
system.cpu.dcache.demandMissLatency::total 197122758500                       # number of demand (read+write) miss ticks (Tick)
system.cpu.dcache.overallMissLatency::cpu.data 197122758500                       # number of overall miss ticks (Tick)
system.cpu.dcache.overallMissLatency::total 197122758500                       # number of overall miss ticks (Tick)
system.cpu.dcache.demandAccesses::cpu.data     14234773                       # number of demand (read+write) accesses (Count)
system.cpu.dcache.demandAccesses::total      14234773                       # number of demand (read+write) accesses (Count)
system.cpu.dcache.overallAccesses::cpu.data     14234799                       # number of overall (read+write) accesses (Count)
system.cpu.dcache.overallAccesses::total     14234799                       # number of overall (read+write) accesses (Count)
system.cpu.dcache.demandMissRate::cpu.data     0.199970                       # miss rate for demand accesses (Ratio)
system.cpu.dcache.demandMissRate::total      0.199970                       # miss rate for demand accesses (Ratio)
system.cpu.dcache.overallMissRate::cpu.data     0.199970                       # miss rate for overall accesses (Ratio)
system.cpu.dcache.overallMissRate::total     0.199970                       # miss rate for overall accesses (Ratio)
system.cpu.dcache.demandAvgMissLatency::cpu.data 69250.098014                       # average overall miss latency in ticks ((Tick/Count))
system.cpu.dcache.demandAvgMissLatency::total 69250.098014                       # average overall miss latency in ticks ((Tick/Count))
system.cpu.dcache.overallAvgMissLatency::cpu.data 69250.049358                       # average overall miss latency ((Tick/Count))
system.cpu.dcache.overallAvgMissLatency::total 69250.049358                       # average overall miss latency ((Tick/Count))
system.cpu.dcache.blockedCycles::no_mshrs            0                       # number of cycles access was blocked (Cycle)
system.cpu.dcache.blockedCycles::no_targets            0                       # number of cycles access was blocked (Cycle)
system.cpu.dcache.blockedCauses::no_mshrs            0                       # number of times access was blocked (Count)
system.cpu.dcache.blockedCauses::no_targets            0                       # number of times access was blocked (Count)
system.cpu.dcache.avgBlocked::no_mshrs            nan                       # average number of cycles each access was blocked ((Cycle/Count))
system.cpu.dcache.avgBlocked::no_targets          nan                       # average number of cycles each access was blocked ((Cycle/Count))
system.cpu.dcache.writebacks::writebacks      1778004                       # number of writebacks (Count)
system.cpu.dcache.writebacks::total           1778004                       # number of writebacks (Count)
system.cpu.dcache.demandMshrHits::cpu.data      1067424                       # number of demand (read+write) MSHR hits (Count)
system.cpu.dcache.demandMshrHits::total       1067424                       # number of demand (read+write) MSHR hits (Count)
system.cpu.dcache.overallMshrHits::cpu.data      1067424                       # number of overall MSHR hits (Count)
system.cpu.dcache.overallMshrHits::total      1067424                       # number of overall MSHR hits (Count)
system.cpu.dcache.demandMshrMisses::cpu.data      1779110                       # number of demand (read+write) MSHR misses (Count)
system.cpu.dcache.demandMshrMisses::total      1779110                       # number of demand (read+write) MSHR misses (Count)
system.cpu.dcache.overallMshrMisses::cpu.data      1779112                       # number of overall MSHR misses (Count)
system.cpu.dcache.overallMshrMisses::total      1779112                       # number of overall MSHR misses (Count)
system.cpu.dcache.demandMshrMissLatency::cpu.data 157078354500                       # number of demand (read+write) MSHR miss ticks (Tick)
system.cpu.dcache.demandMshrMissLatency::total 157078354500                       # number of demand (read+write) MSHR miss ticks (Tick)
system.cpu.dcache.overallMshrMissLatency::cpu.data 157078539500                       # number of overall MSHR miss ticks (Tick)
system.cpu.dcache.overallMshrMissLatency::total 157078539500                       # number of overall MSHR miss ticks (Tick)
system.cpu.dcache.demandMshrMissRate::cpu.data     0.124983                       # mshr miss ratio for demand accesses (Ratio)
system.cpu.dcache.demandMshrMissRate::total     0.124983                       # mshr miss ratio for demand accesses (Ratio)
system.cpu.dcache.overallMshrMissRate::cpu.data     0.124983                       # mshr miss ratio for overall accesses (Ratio)
system.cpu.dcache.overallMshrMissRate::total     0.124983                       # mshr miss ratio for overall accesses (Ratio)
system.cpu.dcache.demandAvgMshrMissLatency::cpu.data 88290.411779                       # average overall mshr miss latency ((Tick/Count))
system.cpu.dcache.demandAvgMshrMissLatency::total 88290.411779                       # average overall mshr miss latency ((Tick/Count))
system.cpu.dcache.overallAvgMshrMissLatency::cpu.data 88290.416511                       # average overall mshr miss latency ((Tick/Count))
system.cpu.dcache.overallAvgMshrMissLatency::total 88290.416511                       # average overall mshr miss latency ((Tick/Count))
system.cpu.dcache.replacements                1778089                       # number of replacements (Count)
system.cpu.dcache.LoadLockedReq.hits::cpu.data           13                       # number of LoadLockedReq hits (Count)
system.cpu.dcache.LoadLockedReq.hits::total           13                       # number of LoadLockedReq hits (Count)
system.cpu.dcache.LoadLockedReq.misses::cpu.data            1                       # number of LoadLockedReq misses (Count)
system.cpu.dcache.LoadLockedReq.misses::total            1                       # number of LoadLockedReq misses (Count)
system.cpu.dcache.LoadLockedReq.missLatency::cpu.data        72000                       # number of LoadLockedReq miss ticks (Tick)
system.cpu.dcache.LoadLockedReq.missLatency::total        72000                       # number of LoadLockedReq miss ticks (Tick)
system.cpu.dcache.LoadLockedReq.accesses::cpu.data           14                       # number of LoadLockedReq accesses(hits+misses) (Count)
system.cpu.dcache.LoadLockedReq.accesses::total           14                       # number of LoadLockedReq accesses(hits+misses) (Count)
system.cpu.dcache.LoadLockedReq.missRate::cpu.data     0.071429                       # miss rate for LoadLockedReq accesses (Ratio)
system.cpu.dcache.LoadLockedReq.missRate::total     0.071429                       # miss rate for LoadLockedReq accesses (Ratio)
system.cpu.dcache.LoadLockedReq.avgMissLatency::cpu.data        72000                       # average LoadLockedReq miss latency ((Tick/Count))
system.cpu.dcache.LoadLockedReq.avgMissLatency::total        72000                       # average LoadLockedReq miss latency ((Tick/Count))
system.cpu.dcache.LoadLockedReq.mshrMisses::cpu.data            1                       # number of LoadLockedReq MSHR misses (Count)
system.cpu.dcache.LoadLockedReq.mshrMisses::total            1                       # number of LoadLockedReq MSHR misses (Count)
system.cpu.dcache.LoadLockedReq.mshrMissLatency::cpu.data        71000                       # number of LoadLockedReq MSHR miss ticks (Tick)
system.cpu.dcache.LoadLockedReq.mshrMissLatency::total        71000                       # number of LoadLockedReq MSHR miss ticks (Tick)
system.cpu.dcache.LoadLockedReq.mshrMissRate::cpu.data     0.071429                       # mshr miss rate for LoadLockedReq accesses (Ratio)
system.cpu.dcache.LoadLockedReq.mshrMissRate::total     0.071429                       # mshr miss rate for LoadLockedReq accesses (Ratio)
system.cpu.dcache.LoadLockedReq.avgMshrMissLatency::cpu.data        71000                       # average LoadLockedReq mshr miss latency ((Tick/Count))
system.cpu.dcache.LoadLockedReq.avgMshrMissLatency::total        71000                       # average LoadLockedReq mshr miss latency ((Tick/Count))
system.cpu.dcache.ReadReq.hits::cpu.data         1740                       # number of ReadReq hits (Count)
system.cpu.dcache.ReadReq.hits::total            1740                       # number of ReadReq hits (Count)
system.cpu.dcache.ReadReq.misses::cpu.data          112                       # number of ReadReq misses (Count)
system.cpu.dcache.ReadReq.misses::total           112                       # number of ReadReq misses (Count)
system.cpu.dcache.ReadReq.missLatency::cpu.data      9137500                       # number of ReadReq miss ticks (Tick)
system.cpu.dcache.ReadReq.missLatency::total      9137500                       # number of ReadReq miss ticks (Tick)
system.cpu.dcache.ReadReq.accesses::cpu.data         1852                       # number of ReadReq accesses(hits+misses) (Count)
system.cpu.dcache.ReadReq.accesses::total         1852                       # number of ReadReq accesses(hits+misses) (Count)
system.cpu.dcache.ReadReq.missRate::cpu.data     0.060475                       # miss rate for ReadReq accesses (Ratio)
system.cpu.dcache.ReadReq.missRate::total     0.060475                       # miss rate for ReadReq accesses (Ratio)
system.cpu.dcache.ReadReq.avgMissLatency::cpu.data 81584.821429                       # average ReadReq miss latency ((Tick/Count))
system.cpu.dcache.ReadReq.avgMissLatency::total 81584.821429                       # average ReadReq miss latency ((Tick/Count))
system.cpu.dcache.ReadReq.mshrHits::cpu.data           10                       # number of ReadReq MSHR hits (Count)
system.cpu.dcache.ReadReq.mshrHits::total           10                       # number of ReadReq MSHR hits (Count)
system.cpu.dcache.ReadReq.mshrMisses::cpu.data          102                       # number of ReadReq MSHR misses (Count)
system.cpu.dcache.ReadReq.mshrMisses::total          102                       # number of ReadReq MSHR misses (Count)
system.cpu.dcache.ReadReq.mshrMissLatency::cpu.data      8189500                       # number of ReadReq MSHR miss ticks (Tick)
system.cpu.dcache.ReadReq.mshrMissLatency::total      8189500                       # number of ReadReq MSHR miss ticks (Tick)
system.cpu.dcache.ReadReq.mshrMissRate::cpu.data     0.055076                       # mshr miss rate for ReadReq accesses (Ratio)
system.cpu.dcache.ReadReq.mshrMissRate::total     0.055076                       # mshr miss rate for ReadReq accesses (Ratio)
system.cpu.dcache.ReadReq.avgMshrMissLatency::cpu.data 80289.215686                       # average ReadReq mshr miss latency ((Tick/Count))
system.cpu.dcache.ReadReq.avgMshrMissLatency::total 80289.215686                       # average ReadReq mshr miss latency ((Tick/Count))
system.cpu.dcache.SoftPFReq.hits::cpu.data           24                       # number of SoftPFReq hits (Count)
system.cpu.dcache.SoftPFReq.hits::total            24                       # number of SoftPFReq hits (Count)
system.cpu.dcache.SoftPFReq.misses::cpu.data            2                       # number of SoftPFReq misses (Count)
system.cpu.dcache.SoftPFReq.misses::total            2                       # number of SoftPFReq misses (Count)
system.cpu.dcache.SoftPFReq.accesses::cpu.data           26                       # number of SoftPFReq accesses(hits+misses) (Count)
system.cpu.dcache.SoftPFReq.accesses::total           26                       # number of SoftPFReq accesses(hits+misses) (Count)
system.cpu.dcache.SoftPFReq.missRate::cpu.data     0.076923                       # miss rate for SoftPFReq accesses (Ratio)
system.cpu.dcache.SoftPFReq.missRate::total     0.076923                       # miss rate for SoftPFReq accesses (Ratio)
system.cpu.dcache.SoftPFReq.mshrMisses::cpu.data            2                       # number of SoftPFReq MSHR misses (Count)
system.cpu.dcache.SoftPFReq.mshrMisses::total            2                       # number of SoftPFReq MSHR misses (Count)
system.cpu.dcache.SoftPFReq.mshrMissLatency::cpu.data       185000                       # number of SoftPFReq MSHR miss ticks (Tick)
system.cpu.dcache.SoftPFReq.mshrMissLatency::total       185000                       # number of SoftPFReq MSHR miss ticks (Tick)
system.cpu.dcache.SoftPFReq.mshrMissRate::cpu.data     0.076923                       # mshr miss rate for SoftPFReq accesses (Ratio)
system.cpu.dcache.SoftPFReq.mshrMissRate::total     0.076923                       # mshr miss rate for SoftPFReq accesses (Ratio)
system.cpu.dcache.SoftPFReq.avgMshrMissLatency::cpu.data        92500                       # average SoftPFReq mshr miss latency ((Tick/Count))
system.cpu.dcache.SoftPFReq.avgMshrMissLatency::total        92500                       # average SoftPFReq mshr miss latency ((Tick/Count))
system.cpu.dcache.StoreCondReq.hits::cpu.data           14                       # number of StoreCondReq hits (Count)
system.cpu.dcache.StoreCondReq.hits::total           14                       # number of StoreCondReq hits (Count)
system.cpu.dcache.StoreCondReq.accesses::cpu.data           14                       # number of StoreCondReq accesses(hits+misses) (Count)
system.cpu.dcache.StoreCondReq.accesses::total           14                       # number of StoreCondReq accesses(hits+misses) (Count)
system.cpu.dcache.WriteLineReq.misses::cpu.data            7                       # number of WriteLineReq misses (Count)
system.cpu.dcache.WriteLineReq.misses::total            7                       # number of WriteLineReq misses (Count)
system.cpu.dcache.WriteLineReq.missLatency::cpu.data       221000                       # number of WriteLineReq miss ticks (Tick)
system.cpu.dcache.WriteLineReq.missLatency::total       221000                       # number of WriteLineReq miss ticks (Tick)
system.cpu.dcache.WriteLineReq.accesses::cpu.data            7                       # number of WriteLineReq accesses(hits+misses) (Count)
system.cpu.dcache.WriteLineReq.accesses::total            7                       # number of WriteLineReq accesses(hits+misses) (Count)
system.cpu.dcache.WriteLineReq.missRate::cpu.data            1                       # miss rate for WriteLineReq accesses (Ratio)
system.cpu.dcache.WriteLineReq.missRate::total            1                       # miss rate for WriteLineReq accesses (Ratio)
system.cpu.dcache.WriteLineReq.avgMissLatency::cpu.data 31571.428571                       # average WriteLineReq miss latency ((Tick/Count))
system.cpu.dcache.WriteLineReq.avgMissLatency::total 31571.428571                       # average WriteLineReq miss latency ((Tick/Count))
system.cpu.dcache.WriteLineReq.mshrMisses::cpu.data            7                       # number of WriteLineReq MSHR misses (Count)
system.cpu.dcache.WriteLineReq.mshrMisses::total            7                       # number of WriteLineReq MSHR misses (Count)
system.cpu.dcache.WriteLineReq.mshrMissLatency::cpu.data       214000                       # number of WriteLineReq MSHR miss ticks (Tick)
system.cpu.dcache.WriteLineReq.mshrMissLatency::total       214000                       # number of WriteLineReq MSHR miss ticks (Tick)
system.cpu.dcache.WriteLineReq.mshrMissRate::cpu.data            1                       # mshr miss rate for WriteLineReq accesses (Ratio)
system.cpu.dcache.WriteLineReq.mshrMissRate::total            1                       # mshr miss rate for WriteLineReq accesses (Ratio)
system.cpu.dcache.WriteLineReq.avgMshrMissLatency::cpu.data 30571.428571                       # average WriteLineReq mshr miss latency ((Tick/Count))
system.cpu.dcache.WriteLineReq.avgMshrMissLatency::total 30571.428571                       # average WriteLineReq mshr miss latency ((Tick/Count))
system.cpu.dcache.WriteReq.hits::cpu.data     11386499                       # number of WriteReq hits (Count)
system.cpu.dcache.WriteReq.hits::total       11386499                       # number of WriteReq hits (Count)
system.cpu.dcache.WriteReq.misses::cpu.data      2846415                       # number of WriteReq misses (Count)
system.cpu.dcache.WriteReq.misses::total      2846415                       # number of WriteReq misses (Count)
system.cpu.dcache.WriteReq.missLatency::cpu.data 197113400000                       # number of WriteReq miss ticks (Tick)
system.cpu.dcache.WriteReq.missLatency::total 197113400000                       # number of WriteReq miss ticks (Tick)
system.cpu.dcache.WriteReq.accesses::cpu.data     14232914                       # number of WriteReq accesses(hits+misses) (Count)
system.cpu.dcache.WriteReq.accesses::total     14232914                       # number of WriteReq accesses(hits+misses) (Count)
system.cpu.dcache.WriteReq.missRate::cpu.data     0.199988                       # miss rate for WriteReq accesses (Ratio)
system.cpu.dcache.WriteReq.missRate::total     0.199988                       # miss rate for WriteReq accesses (Ratio)
system.cpu.dcache.WriteReq.avgMissLatency::cpu.data 69249.705331                       # average WriteReq miss latency ((Tick/Count))
system.cpu.dcache.WriteReq.avgMissLatency::total 69249.705331                       # average WriteReq miss latency ((Tick/Count))
system.cpu.dcache.WriteReq.mshrHits::cpu.data      1067414                       # number of WriteReq MSHR hits (Count)
system.cpu.dcache.WriteReq.mshrHits::total      1067414                       # number of WriteReq MSHR hits (Count)
system.cpu.dcache.WriteReq.mshrMisses::cpu.data      1779001                       # number of WriteReq MSHR misses (Count)
system.cpu.dcache.WriteReq.mshrMisses::total      1779001                       # number of WriteReq MSHR misses (Count)
system.cpu.dcache.WriteReq.mshrMissLatency::cpu.data 157069951000                       # number of WriteReq MSHR miss ticks (Tick)
system.cpu.dcache.WriteReq.mshrMissLatency::total 157069951000                       # number of WriteReq MSHR miss ticks (Tick)
system.cpu.dcache.WriteReq.mshrMissRate::cpu.data     0.124992                       # mshr miss rate for WriteReq accesses (Ratio)
system.cpu.dcache.WriteReq.mshrMissRate::total     0.124992                       # mshr miss rate for WriteReq accesses (Ratio)
system.cpu.dcache.WriteReq.avgMshrMissLatency::cpu.data 88291.097644                       # average WriteReq mshr miss latency ((Tick/Count))
system.cpu.dcache.WriteReq.avgMshrMissLatency::total 88291.097644                       # average WriteReq mshr miss latency ((Tick/Count))
system.cpu.dcache.power_state.pwrStateResidencyTicks::UNDEFINED 106665607000                       # Cumulative time (in ticks) in various power states (Tick)
system.cpu.dcache.tags.tagsInUse          1023.301321                       # Average ticks per tags in use ((Tick/Count))
system.cpu.dcache.tags.totalRefs             13167403                       # Total number of references to valid blocks. (Count)
system.cpu.dcache.tags.sampledRefs            1779113                       # Sample count of references to valid blocks. (Count)
system.cpu.dcache.tags.avgRefs               7.401105                       # Average number of references to valid blocks. ((Count/Count))
system.cpu.dcache.tags.warmupTick              176500                       # The tick when the warmup percentage was hit. (Tick)
system.cpu.dcache.tags.occupancies::cpu.data  1023.301321                       # Average occupied blocks per tick, per requestor ((Count/Tick))
system.cpu.dcache.tags.avgOccs::cpu.data     0.999318                       # Average percentage of cache occupancy ((Ratio/Tick))
system.cpu.dcache.tags.avgOccs::total        0.999318                       # Average percentage of cache occupancy ((Ratio/Tick))
system.cpu.dcache.tags.occupanciesTaskId::1024         1024                       # Occupied blocks per task id (Count)
system.cpu.dcache.tags.ageTaskId_1024::0          165                       # Occupied blocks per task id, per block age (Count)
system.cpu.dcache.tags.ageTaskId_1024::1          859                       # Occupied blocks per task id, per block age (Count)
system.cpu.dcache.tags.ratioOccsTaskId::1024            1                       # Ratio of occupied blocks and all blocks, per task id (Ratio)
system.cpu.dcache.tags.tagAccesses           30248767                       # Number of tag accesses (Count)
system.cpu.dcache.tags.dataAccesses          30248767                       # Number of data accesses (Count)
system.cpu.dcache.tags.power_state.pwrStateResidencyTicks::UNDEFINED 106665607000                       # Cumulative time (in ticks) in various power states (Tick)
system.cpu.fetch2.intInstructions             1461420                       # Number of integer instructions successfully decoded (Count)
system.cpu.fetch2.fpInstructions                    0                       # Number of floating point instructions successfully decoded (Count)
system.cpu.fetch2.vecInstructions                 300                       # Number of SIMD instructions successfully decoded (Count)
system.cpu.fetch2.loadInstructions               2286                       # Number of memory load instructions successfully decoded (Count)
system.cpu.fetch2.storeInstructions           1479802                       # Number of memory store instructions successfully decoded (Count)
system.cpu.fetch2.amoInstructions                   0                       # Number of memory atomic instructions successfully decoded (Count)
system.cpu.icache.demandHits::cpu.inst        2933201                       # number of demand (read+write) hits (Count)
system.cpu.icache.demandHits::total           2933201                       # number of demand (read+write) hits (Count)
system.cpu.icache.overallHits::cpu.inst       2933201                       # number of overall hits (Count)
system.cpu.icache.overallHits::total          2933201                       # number of overall hits (Count)
system.cpu.icache.demandMisses::cpu.inst          738                       # number of demand (read+write) misses (Count)
system.cpu.icache.demandMisses::total             738                       # number of demand (read+write) misses (Count)
system.cpu.icache.overallMisses::cpu.inst          738                       # number of overall misses (Count)
system.cpu.icache.overallMisses::total            738                       # number of overall misses (Count)
system.cpu.icache.demandMissLatency::cpu.inst     47518500                       # number of demand (read+write) miss ticks (Tick)
system.cpu.icache.demandMissLatency::total     47518500                       # number of demand (read+write) miss ticks (Tick)
system.cpu.icache.overallMissLatency::cpu.inst     47518500                       # number of overall miss ticks (Tick)
system.cpu.icache.overallMissLatency::total     47518500                       # number of overall miss ticks (Tick)
system.cpu.icache.demandAccesses::cpu.inst      2933939                       # number of demand (read+write) accesses (Count)
system.cpu.icache.demandAccesses::total       2933939                       # number of demand (read+write) accesses (Count)
system.cpu.icache.overallAccesses::cpu.inst      2933939                       # number of overall (read+write) accesses (Count)
system.cpu.icache.overallAccesses::total      2933939                       # number of overall (read+write) accesses (Count)
system.cpu.icache.demandMissRate::cpu.inst     0.000252                       # miss rate for demand accesses (Ratio)
system.cpu.icache.demandMissRate::total      0.000252                       # miss rate for demand accesses (Ratio)
system.cpu.icache.overallMissRate::cpu.inst     0.000252                       # miss rate for overall accesses (Ratio)
system.cpu.icache.overallMissRate::total     0.000252                       # miss rate for overall accesses (Ratio)
system.cpu.icache.demandAvgMissLatency::cpu.inst 64388.211382                       # average overall miss latency in ticks ((Tick/Count))
system.cpu.icache.demandAvgMissLatency::total 64388.211382                       # average overall miss latency in ticks ((Tick/Count))
system.cpu.icache.overallAvgMissLatency::cpu.inst 64388.211382                       # average overall miss latency ((Tick/Count))
system.cpu.icache.overallAvgMissLatency::total 64388.211382                       # average overall miss latency ((Tick/Count))
system.cpu.icache.blockedCycles::no_mshrs            0                       # number of cycles access was blocked (Cycle)
system.cpu.icache.blockedCycles::no_targets            0                       # number of cycles access was blocked (Cycle)
system.cpu.icache.blockedCauses::no_mshrs            0                       # number of times access was blocked (Count)
system.cpu.icache.blockedCauses::no_targets            0                       # number of times access was blocked (Count)
system.cpu.icache.avgBlocked::no_mshrs            nan                       # average number of cycles each access was blocked ((Cycle/Count))
system.cpu.icache.avgBlocked::no_targets          nan                       # average number of cycles each access was blocked ((Cycle/Count))
system.cpu.icache.writebacks::writebacks          490                       # number of writebacks (Count)
system.cpu.icache.writebacks::total               490                       # number of writebacks (Count)
system.cpu.icache.demandMshrMisses::cpu.inst          738                       # number of demand (read+write) MSHR misses (Count)
system.cpu.icache.demandMshrMisses::total          738                       # number of demand (read+write) MSHR misses (Count)
system.cpu.icache.overallMshrMisses::cpu.inst          738                       # number of overall MSHR misses (Count)
system.cpu.icache.overallMshrMisses::total          738                       # number of overall MSHR misses (Count)
system.cpu.icache.demandMshrMissLatency::cpu.inst     46780500                       # number of demand (read+write) MSHR miss ticks (Tick)
system.cpu.icache.demandMshrMissLatency::total     46780500                       # number of demand (read+write) MSHR miss ticks (Tick)
system.cpu.icache.overallMshrMissLatency::cpu.inst     46780500                       # number of overall MSHR miss ticks (Tick)
system.cpu.icache.overallMshrMissLatency::total     46780500                       # number of overall MSHR miss ticks (Tick)
system.cpu.icache.demandMshrMissRate::cpu.inst     0.000252                       # mshr miss ratio for demand accesses (Ratio)
system.cpu.icache.demandMshrMissRate::total     0.000252                       # mshr miss ratio for demand accesses (Ratio)
system.cpu.icache.overallMshrMissRate::cpu.inst     0.000252                       # mshr miss ratio for overall accesses (Ratio)
system.cpu.icache.overallMshrMissRate::total     0.000252                       # mshr miss ratio for overall accesses (Ratio)
system.cpu.icache.demandAvgMshrMissLatency::cpu.inst 63388.211382                       # average overall mshr miss latency ((Tick/Count))
system.cpu.icache.demandAvgMshrMissLatency::total 63388.211382                       # average overall mshr miss latency ((Tick/Count))
system.cpu.icache.overallAvgMshrMissLatency::cpu.inst 63388.211382                       # average overall mshr miss latency ((Tick/Count))
system.cpu.icache.overallAvgMshrMissLatency::total 63388.211382                       # average overall mshr miss latency ((Tick/Count))
system.cpu.icache.replacements                    490                       # number of replacements (Count)
system.cpu.icache.ReadReq.hits::cpu.inst      2933201                       # number of ReadReq hits (Count)
system.cpu.icache.ReadReq.hits::total         2933201                       # number of ReadReq hits (Count)
system.cpu.icache.ReadReq.misses::cpu.inst          738                       # number of ReadReq misses (Count)
system.cpu.icache.ReadReq.misses::total           738                       # number of ReadReq misses (Count)
system.cpu.icache.ReadReq.missLatency::cpu.inst     47518500                       # number of ReadReq miss ticks (Tick)
system.cpu.icache.ReadReq.missLatency::total     47518500                       # number of ReadReq miss ticks (Tick)
system.cpu.icache.ReadReq.accesses::cpu.inst      2933939                       # number of ReadReq accesses(hits+misses) (Count)
system.cpu.icache.ReadReq.accesses::total      2933939                       # number of ReadReq accesses(hits+misses) (Count)
system.cpu.icache.ReadReq.missRate::cpu.inst     0.000252                       # miss rate for ReadReq accesses (Ratio)
system.cpu.icache.ReadReq.missRate::total     0.000252                       # miss rate for ReadReq accesses (Ratio)
system.cpu.icache.ReadReq.avgMissLatency::cpu.inst 64388.211382                       # average ReadReq miss latency ((Tick/Count))
system.cpu.icache.ReadReq.avgMissLatency::total 64388.211382                       # average ReadReq miss latency ((Tick/Count))
system.cpu.icache.ReadReq.mshrMisses::cpu.inst          738                       # number of ReadReq MSHR misses (Count)
system.cpu.icache.ReadReq.mshrMisses::total          738                       # number of ReadReq MSHR misses (Count)
system.cpu.icache.ReadReq.mshrMissLatency::cpu.inst     46780500                       # number of ReadReq MSHR miss ticks (Tick)
system.cpu.icache.ReadReq.mshrMissLatency::total     46780500                       # number of ReadReq MSHR miss ticks (Tick)
system.cpu.icache.ReadReq.mshrMissRate::cpu.inst     0.000252                       # mshr miss rate for ReadReq accesses (Ratio)
system.cpu.icache.ReadReq.mshrMissRate::total     0.000252                       # mshr miss rate for ReadReq accesses (Ratio)
system.cpu.icache.ReadReq.avgMshrMissLatency::cpu.inst 63388.211382                       # average ReadReq mshr miss latency ((Tick/Count))
system.cpu.icache.ReadReq.avgMshrMissLatency::total 63388.211382                       # average ReadReq mshr miss latency ((Tick/Count))
system.cpu.icache.power_state.pwrStateResidencyTicks::UNDEFINED 106665607000                       # Cumulative time (in ticks) in various power states (Tick)
system.cpu.icache.tags.tagsInUse           247.957615                       # Average ticks per tags in use ((Tick/Count))
system.cpu.icache.tags.totalRefs              2933939                       # Total number of references to valid blocks. (Count)
system.cpu.icache.tags.sampledRefs                738                       # Sample count of references to valid blocks. (Count)
system.cpu.icache.tags.avgRefs            3975.527100                       # Average number of references to valid blocks. ((Count/Count))
system.cpu.icache.tags.warmupTick               87500                       # The tick when the warmup percentage was hit. (Tick)
system.cpu.icache.tags.occupancies::cpu.inst   247.957615                       # Average occupied blocks per tick, per requestor ((Count/Tick))
system.cpu.icache.tags.avgOccs::cpu.inst     0.968584                       # Average percentage of cache occupancy ((Ratio/Tick))
system.cpu.icache.tags.avgOccs::total        0.968584                       # Average percentage of cache occupancy ((Ratio/Tick))
system.cpu.icache.tags.occupanciesTaskId::1024          248                       # Occupied blocks per task id (Count)
system.cpu.icache.tags.ageTaskId_1024::4          248                       # Occupied blocks per task id, per block age (Count)
system.cpu.icache.tags.ratioOccsTaskId::1024     0.968750                       # Ratio of occupied blocks and all blocks, per task id (Ratio)
system.cpu.icache.tags.tagAccesses            5868616                       # Number of tag accesses (Count)
system.cpu.icache.tags.dataAccesses           5868616                       # Number of data accesses (Count)
system.cpu.icache.tags.power_state.pwrStateResidencyTicks::UNDEFINED 106665607000                       # Cumulative time (in ticks) in various power states (Tick)
system.cpu.loadValuePred.lvpuLookups             4572                       # Number of LVPT lookups (Count)
system.cpu.loadValuePred.predictedIncorrect         1635                       # Number of incorrect predictions (Count)
system.cpu.mmu.alignFaults                          0                       # Number of MMU faults due to alignment restrictions (Count)
system.cpu.mmu.prefetchFaults                       0                       # Number of MMU faults due to prefetch (Count)
system.cpu.mmu.domainFaults                         0                       # Number of MMU faults due to domain restrictions (Count)
system.cpu.mmu.permsFaults                          0                       # Number of MMU faults due to permissions restrictions (Count)
system.cpu.mmu.dtb.readHits                         0                       # Read hits (Count)
system.cpu.mmu.dtb.readMisses                       0                       # Read misses (Count)
system.cpu.mmu.dtb.writeHits                        0                       # Write hits (Count)
system.cpu.mmu.dtb.writeMisses                      0                       # Write misses (Count)
system.cpu.mmu.dtb.inserts                          0                       # Number of times an entry is inserted into the TLB (Count)
system.cpu.mmu.dtb.flushTlb                         0                       # Number of times complete TLB was flushed (Count)
system.cpu.mmu.dtb.flushTlbMva                      0                       # Number of times TLB was flushed by MVA (Count)
system.cpu.mmu.dtb.flushTlbMvaAsid                  0                       # Number of times TLB was flushed by MVA & ASID (Count)
system.cpu.mmu.dtb.flushTlbAsid                     0                       # Number of times TLB was flushed by ASID (Count)
system.cpu.mmu.dtb.flushedEntries                   0                       # Number of entries that have been flushed from TLB (Count)
system.cpu.mmu.dtb.readAccesses                     0                       # Read accesses (Count)
system.cpu.mmu.dtb.writeAccesses                    0                       # Write accesses (Count)
system.cpu.mmu.dtb.hits                             0                       # Total TLB (inst and data) hits (Count)
system.cpu.mmu.dtb.misses                           0                       # Total TLB (inst and data) misses (Count)
system.cpu.mmu.dtb.accesses                         0                       # Total TLB (inst and data) accesses (Count)
system.cpu.mmu.dtb_walker.walks                     0                       # Table walker walks requested (Count)
system.cpu.mmu.dtb_walker.requestOrigin_Requested::Data            0                       # Table walker requests started/completed, data/inst (Count)
system.cpu.mmu.dtb_walker.requestOrigin_Requested::Inst            0                       # Table walker requests started/completed, data/inst (Count)
system.cpu.mmu.dtb_walker.requestOrigin_Requested::total            0                       # Table walker requests started/completed, data/inst (Count)
system.cpu.mmu.dtb_walker.requestOrigin_Completed::Data            0                       # Table walker requests started/completed, data/inst (Count)
system.cpu.mmu.dtb_walker.requestOrigin_Completed::Inst            0                       # Table walker requests started/completed, data/inst (Count)
system.cpu.mmu.dtb_walker.requestOrigin_Completed::total            0                       # Table walker requests started/completed, data/inst (Count)
system.cpu.mmu.dtb_walker.requestOrigin::total            0                       # Table walker requests started/completed, data/inst (Count)
system.cpu.mmu.dtb_walker.power_state.pwrStateResidencyTicks::UNDEFINED 106665607000                       # Cumulative time (in ticks) in various power states (Tick)
system.cpu.mmu.itb.instHits                         0                       # Inst hits (Count)
system.cpu.mmu.itb.instMisses                       0                       # Inst misses (Count)
system.cpu.mmu.itb.inserts                          0                       # Number of times an entry is inserted into the TLB (Count)
system.cpu.mmu.itb.flushTlb                         0                       # Number of times complete TLB was flushed (Count)
system.cpu.mmu.itb.flushTlbMva                      0                       # Number of times TLB was flushed by MVA (Count)
system.cpu.mmu.itb.flushTlbMvaAsid                  0                       # Number of times TLB was flushed by MVA & ASID (Count)
system.cpu.mmu.itb.flushTlbAsid                     0                       # Number of times TLB was flushed by ASID (Count)
system.cpu.mmu.itb.flushedEntries                   0                       # Number of entries that have been flushed from TLB (Count)
system.cpu.mmu.itb.instAccesses                     0                       # Inst accesses (Count)
system.cpu.mmu.itb.hits                             0                       # Total TLB (inst and data) hits (Count)
system.cpu.mmu.itb.misses                           0                       # Total TLB (inst and data) misses (Count)
system.cpu.mmu.itb.accesses                         0                       # Total TLB (inst and data) accesses (Count)
system.cpu.mmu.itb_walker.walks                     0                       # Table walker walks requested (Count)
system.cpu.mmu.itb_walker.requestOrigin_Requested::Data            0                       # Table walker requests started/completed, data/inst (Count)
system.cpu.mmu.itb_walker.requestOrigin_Requested::Inst            0                       # Table walker requests started/completed, data/inst (Count)
system.cpu.mmu.itb_walker.requestOrigin_Requested::total            0                       # Table walker requests started/completed, data/inst (Count)
system.cpu.mmu.itb_walker.requestOrigin_Completed::Data            0                       # Table walker requests started/completed, data/inst (Count)
system.cpu.mmu.itb_walker.requestOrigin_Completed::Inst            0                       # Table walker requests started/completed, data/inst (Count)
system.cpu.mmu.itb_walker.requestOrigin_Completed::total            0                       # Table walker requests started/completed, data/inst (Count)
system.cpu.mmu.itb_walker.requestOrigin::total            0                       # Table walker requests started/completed, data/inst (Count)
system.cpu.mmu.itb_walker.power_state.pwrStateResidencyTicks::UNDEFINED 106665607000                       # Cumulative time (in ticks) in various power states (Tick)
system.cpu.mmu.l2_shared.instHits                   0                       # Inst hits (Count)
system.cpu.mmu.l2_shared.instMisses                 0                       # Inst misses (Count)
system.cpu.mmu.l2_shared.inserts                    0                       # Number of times an entry is inserted into the TLB (Count)
system.cpu.mmu.l2_shared.flushTlb                   0                       # Number of times complete TLB was flushed (Count)
system.cpu.mmu.l2_shared.flushTlbMva                0                       # Number of times TLB was flushed by MVA (Count)
system.cpu.mmu.l2_shared.flushTlbMvaAsid            0                       # Number of times TLB was flushed by MVA & ASID (Count)
system.cpu.mmu.l2_shared.flushTlbAsid               0                       # Number of times TLB was flushed by ASID (Count)
system.cpu.mmu.l2_shared.flushedEntries             0                       # Number of entries that have been flushed from TLB (Count)
system.cpu.mmu.l2_shared.instAccesses               0                       # Inst accesses (Count)
system.cpu.mmu.l2_shared.hits                       0                       # Total TLB (inst and data) hits (Count)
system.cpu.mmu.l2_shared.misses                     0                       # Total TLB (inst and data) misses (Count)
system.cpu.mmu.l2_shared.accesses                   0                       # Total TLB (inst and data) accesses (Count)
system.cpu.mmu.stage2_dtb.readHits                  0                       # Read hits (Count)
system.cpu.mmu.stage2_dtb.readMisses                0                       # Read misses (Count)
system.cpu.mmu.stage2_dtb.writeHits                 0                       # Write hits (Count)
system.cpu.mmu.stage2_dtb.writeMisses               0                       # Write misses (Count)
system.cpu.mmu.stage2_dtb.inserts                   0                       # Number of times an entry is inserted into the TLB (Count)
system.cpu.mmu.stage2_dtb.flushTlb                  0                       # Number of times complete TLB was flushed (Count)
system.cpu.mmu.stage2_dtb.flushTlbMva               0                       # Number of times TLB was flushed by MVA (Count)
system.cpu.mmu.stage2_dtb.flushTlbMvaAsid            0                       # Number of times TLB was flushed by MVA & ASID (Count)
system.cpu.mmu.stage2_dtb.flushTlbAsid              0                       # Number of times TLB was flushed by ASID (Count)
system.cpu.mmu.stage2_dtb.flushedEntries            0                       # Number of entries that have been flushed from TLB (Count)
system.cpu.mmu.stage2_dtb.readAccesses              0                       # Read accesses (Count)
system.cpu.mmu.stage2_dtb.writeAccesses             0                       # Write accesses (Count)
system.cpu.mmu.stage2_dtb.hits                      0                       # Total TLB (inst and data) hits (Count)
system.cpu.mmu.stage2_dtb.misses                    0                       # Total TLB (inst and data) misses (Count)
system.cpu.mmu.stage2_dtb.accesses                  0                       # Total TLB (inst and data) accesses (Count)
system.cpu.mmu.stage2_dtb_walker.walks              0                       # Table walker walks requested (Count)
system.cpu.mmu.stage2_dtb_walker.requestOrigin_Requested::Data            0                       # Table walker requests started/completed, data/inst (Count)
system.cpu.mmu.stage2_dtb_walker.requestOrigin_Requested::Inst            0                       # Table walker requests started/completed, data/inst (Count)
system.cpu.mmu.stage2_dtb_walker.requestOrigin_Requested::total            0                       # Table walker requests started/completed, data/inst (Count)
system.cpu.mmu.stage2_dtb_walker.requestOrigin_Completed::Data            0                       # Table walker requests started/completed, data/inst (Count)
system.cpu.mmu.stage2_dtb_walker.requestOrigin_Completed::Inst            0                       # Table walker requests started/completed, data/inst (Count)
system.cpu.mmu.stage2_dtb_walker.requestOrigin_Completed::total            0                       # Table walker requests started/completed, data/inst (Count)
system.cpu.mmu.stage2_dtb_walker.requestOrigin::total            0                       # Table walker requests started/completed, data/inst (Count)
system.cpu.mmu.stage2_dtb_walker.power_state.pwrStateResidencyTicks::UNDEFINED 106665607000                       # Cumulative time (in ticks) in various power states (Tick)
system.cpu.mmu.stage2_itb.instHits                  0                       # Inst hits (Count)
system.cpu.mmu.stage2_itb.instMisses                0                       # Inst misses (Count)
system.cpu.mmu.stage2_itb.inserts                   0                       # Number of times an entry is inserted into the TLB (Count)
system.cpu.mmu.stage2_itb.flushTlb                  0                       # Number of times complete TLB was flushed (Count)
system.cpu.mmu.stage2_itb.flushTlbMva               0                       # Number of times TLB was flushed by MVA (Count)
system.cpu.mmu.stage2_itb.flushTlbMvaAsid            0                       # Number of times TLB was flushed by MVA & ASID (Count)
system.cpu.mmu.stage2_itb.flushTlbAsid              0                       # Number of times TLB was flushed by ASID (Count)
system.cpu.mmu.stage2_itb.flushedEntries            0                       # Number of entries that have been flushed from TLB (Count)
system.cpu.mmu.stage2_itb.instAccesses              0                       # Inst accesses (Count)
system.cpu.mmu.stage2_itb.hits                      0                       # Total TLB (inst and data) hits (Count)
system.cpu.mmu.stage2_itb.misses                    0                       # Total TLB (inst and data) misses (Count)
system.cpu.mmu.stage2_itb.accesses                  0                       # Total TLB (inst and data) accesses (Count)
system.cpu.mmu.stage2_itb_walker.walks              0                       # Table walker walks requested (Count)
system.cpu.mmu.stage2_itb_walker.requestOrigin_Requested::Data            0                       # Table walker requests started/completed, data/inst (Count)
system.cpu.mmu.stage2_itb_walker.requestOrigin_Requested::Inst            0                       # Table walker requests started/completed, data/inst (Count)
system.cpu.mmu.stage2_itb_walker.requestOrigin_Requested::total            0                       # Table walker requests started/completed, data/inst (Count)
system.cpu.mmu.stage2_itb_walker.requestOrigin_Completed::Data            0                       # Table walker requests started/completed, data/inst (Count)
system.cpu.mmu.stage2_itb_walker.requestOrigin_Completed::Inst            0                       # Table walker requests started/completed, data/inst (Count)
system.cpu.mmu.stage2_itb_walker.requestOrigin_Completed::total            0                       # Table walker requests started/completed, data/inst (Count)
system.cpu.mmu.stage2_itb_walker.requestOrigin::total            0                       # Table walker requests started/completed, data/inst (Count)
system.cpu.mmu.stage2_itb_walker.power_state.pwrStateResidencyTicks::UNDEFINED 106665607000                       # Cumulative time (in ticks) in various power states (Tick)
system.cpu.power_state.pwrStateResidencyTicks::ON 106665607000                       # Cumulative time (in ticks) in various power states (Tick)
system.cpu.thread_0.numInsts                 10000000                       # Number of Instructions committed (Count)
system.cpu.thread_0.numOps                   22809759                       # Number of Ops committed (Count)
system.cpu.thread_0.numMemRefs                      0                       # Number of Memory References (Count)
system.cpu.workload.numSyscalls                    10                       # Number of system calls (Count)
system.cpu_clk_domain.clock                       500                       # Clock period in ticks (Tick)
system.cpu_voltage_domain.voltage                   1                       # Voltage in Volts (Volt)
system.l2.demandHits::cpu.inst                    155                       # number of demand (read+write) hits (Count)
system.l2.demandHits::total                       155                       # number of demand (read+write) hits (Count)
system.l2.overallHits::cpu.inst                   155                       # number of overall hits (Count)
system.l2.overallHits::total                      155                       # number of overall hits (Count)
system.l2.demandMisses::cpu.inst                  583                       # number of demand (read+write) misses (Count)
system.l2.demandMisses::cpu.data              1779106                       # number of demand (read+write) misses (Count)
system.l2.demandMisses::total                 1779689                       # number of demand (read+write) misses (Count)
system.l2.overallMisses::cpu.inst                 583                       # number of overall misses (Count)
system.l2.overallMisses::cpu.data             1779106                       # number of overall misses (Count)
system.l2.overallMisses::total                1779689                       # number of overall misses (Count)
system.l2.demandMissLatency::cpu.inst        44045000                       # number of demand (read+write) miss ticks (Tick)
system.l2.demandMissLatency::cpu.data    154409734000                       # number of demand (read+write) miss ticks (Tick)
system.l2.demandMissLatency::total       154453779000                       # number of demand (read+write) miss ticks (Tick)
system.l2.overallMissLatency::cpu.inst       44045000                       # number of overall miss ticks (Tick)
system.l2.overallMissLatency::cpu.data   154409734000                       # number of overall miss ticks (Tick)
system.l2.overallMissLatency::total      154453779000                       # number of overall miss ticks (Tick)
system.l2.demandAccesses::cpu.inst                738                       # number of demand (read+write) accesses (Count)
system.l2.demandAccesses::cpu.data            1779106                       # number of demand (read+write) accesses (Count)
system.l2.demandAccesses::total               1779844                       # number of demand (read+write) accesses (Count)
system.l2.overallAccesses::cpu.inst               738                       # number of overall (read+write) accesses (Count)
system.l2.overallAccesses::cpu.data           1779106                       # number of overall (read+write) accesses (Count)
system.l2.overallAccesses::total              1779844                       # number of overall (read+write) accesses (Count)
system.l2.demandMissRate::cpu.inst           0.789973                       # miss rate for demand accesses (Ratio)
system.l2.demandMissRate::cpu.data                  1                       # miss rate for demand accesses (Ratio)
system.l2.demandMissRate::total              0.999913                       # miss rate for demand accesses (Ratio)
system.l2.overallMissRate::cpu.inst          0.789973                       # miss rate for overall accesses (Ratio)
system.l2.overallMissRate::cpu.data                 1                       # miss rate for overall accesses (Ratio)
system.l2.overallMissRate::total             0.999913                       # miss rate for overall accesses (Ratio)
system.l2.demandAvgMissLatency::cpu.inst 75548.885077                       # average overall miss latency in ticks ((Tick/Count))
system.l2.demandAvgMissLatency::cpu.data 86790.631924                       # average overall miss latency in ticks ((Tick/Count))
system.l2.demandAvgMissLatency::total    86786.949293                       # average overall miss latency in ticks ((Tick/Count))
system.l2.overallAvgMissLatency::cpu.inst 75548.885077                       # average overall miss latency ((Tick/Count))
system.l2.overallAvgMissLatency::cpu.data 86790.631924                       # average overall miss latency ((Tick/Count))
system.l2.overallAvgMissLatency::total   86786.949293                       # average overall miss latency ((Tick/Count))
system.l2.blockedCycles::no_mshrs                   0                       # number of cycles access was blocked (Cycle)
system.l2.blockedCycles::no_targets                 0                       # number of cycles access was blocked (Cycle)
system.l2.blockedCauses::no_mshrs                   0                       # number of times access was blocked (Count)
system.l2.blockedCauses::no_targets                 0                       # number of times access was blocked (Count)
system.l2.avgBlocked::no_mshrs                    nan                       # average number of cycles each access was blocked ((Cycle/Count))
system.l2.avgBlocked::no_targets                  nan                       # average number of cycles each access was blocked ((Cycle/Count))
system.l2.writebacks::writebacks              1746260                       # number of writebacks (Count)
system.l2.writebacks::total                   1746260                       # number of writebacks (Count)
system.l2.demandMshrMisses::cpu.inst              583                       # number of demand (read+write) MSHR misses (Count)
system.l2.demandMshrMisses::cpu.data          1779106                       # number of demand (read+write) MSHR misses (Count)
system.l2.demandMshrMisses::total             1779689                       # number of demand (read+write) MSHR misses (Count)
system.l2.overallMshrMisses::cpu.inst             583                       # number of overall MSHR misses (Count)
system.l2.overallMshrMisses::cpu.data         1779106                       # number of overall MSHR misses (Count)
system.l2.overallMshrMisses::total            1779689                       # number of overall MSHR misses (Count)
system.l2.demandMshrMissLatency::cpu.inst     38215000                       # number of demand (read+write) MSHR miss ticks (Tick)
system.l2.demandMshrMissLatency::cpu.data 136618674000                       # number of demand (read+write) MSHR miss ticks (Tick)
system.l2.demandMshrMissLatency::total   136656889000                       # number of demand (read+write) MSHR miss ticks (Tick)
system.l2.overallMshrMissLatency::cpu.inst     38215000                       # number of overall MSHR miss ticks (Tick)
system.l2.overallMshrMissLatency::cpu.data 136618674000                       # number of overall MSHR miss ticks (Tick)
system.l2.overallMshrMissLatency::total  136656889000                       # number of overall MSHR miss ticks (Tick)
system.l2.demandMshrMissRate::cpu.inst       0.789973                       # mshr miss ratio for demand accesses (Ratio)
system.l2.demandMshrMissRate::cpu.data              1                       # mshr miss ratio for demand accesses (Ratio)
system.l2.demandMshrMissRate::total          0.999913                       # mshr miss ratio for demand accesses (Ratio)
system.l2.overallMshrMissRate::cpu.inst      0.789973                       # mshr miss ratio for overall accesses (Ratio)
system.l2.overallMshrMissRate::cpu.data             1                       # mshr miss ratio for overall accesses (Ratio)
system.l2.overallMshrMissRate::total         0.999913                       # mshr miss ratio for overall accesses (Ratio)
system.l2.demandAvgMshrMissLatency::cpu.inst 65548.885077                       # average overall mshr miss latency ((Tick/Count))
system.l2.demandAvgMshrMissLatency::cpu.data 76790.631924                       # average overall mshr miss latency ((Tick/Count))
system.l2.demandAvgMshrMissLatency::total 76786.949293                       # average overall mshr miss latency ((Tick/Count))
system.l2.overallAvgMshrMissLatency::cpu.inst 65548.885077                       # average overall mshr miss latency ((Tick/Count))
system.l2.overallAvgMshrMissLatency::cpu.data 76790.631924                       # average overall mshr miss latency ((Tick/Count))
system.l2.overallAvgMshrMissLatency::total 76786.949293                       # average overall mshr miss latency ((Tick/Count))
system.l2.replacements                        1746928                       # number of replacements (Count)
system.l2.InvalidateReq.misses::cpu.data            7                       # number of InvalidateReq misses (Count)
system.l2.InvalidateReq.misses::total               7                       # number of InvalidateReq misses (Count)
system.l2.InvalidateReq.accesses::cpu.data            7                       # number of InvalidateReq accesses(hits+misses) (Count)
system.l2.InvalidateReq.accesses::total             7                       # number of InvalidateReq accesses(hits+misses) (Count)
system.l2.InvalidateReq.missRate::cpu.data            1                       # miss rate for InvalidateReq accesses (Ratio)
system.l2.InvalidateReq.missRate::total             1                       # miss rate for InvalidateReq accesses (Ratio)
system.l2.InvalidateReq.mshrMisses::cpu.data            7                       # number of InvalidateReq MSHR misses (Count)
system.l2.InvalidateReq.mshrMisses::total            7                       # number of InvalidateReq MSHR misses (Count)
system.l2.InvalidateReq.mshrMissLatency::cpu.data       133000                       # number of InvalidateReq MSHR miss ticks (Tick)
system.l2.InvalidateReq.mshrMissLatency::total       133000                       # number of InvalidateReq MSHR miss ticks (Tick)
system.l2.InvalidateReq.mshrMissRate::cpu.data            1                       # mshr miss rate for InvalidateReq accesses (Ratio)
system.l2.InvalidateReq.mshrMissRate::total            1                       # mshr miss rate for InvalidateReq accesses (Ratio)
system.l2.InvalidateReq.avgMshrMissLatency::cpu.data        19000                       # average InvalidateReq mshr miss latency ((Tick/Count))
system.l2.InvalidateReq.avgMshrMissLatency::total        19000                       # average InvalidateReq mshr miss latency ((Tick/Count))
system.l2.ReadCleanReq.hits::cpu.inst             155                       # number of ReadCleanReq hits (Count)
system.l2.ReadCleanReq.hits::total                155                       # number of ReadCleanReq hits (Count)
system.l2.ReadCleanReq.misses::cpu.inst           583                       # number of ReadCleanReq misses (Count)
system.l2.ReadCleanReq.misses::total              583                       # number of ReadCleanReq misses (Count)
system.l2.ReadCleanReq.missLatency::cpu.inst     44045000                       # number of ReadCleanReq miss ticks (Tick)
system.l2.ReadCleanReq.missLatency::total     44045000                       # number of ReadCleanReq miss ticks (Tick)
system.l2.ReadCleanReq.accesses::cpu.inst          738                       # number of ReadCleanReq accesses(hits+misses) (Count)
system.l2.ReadCleanReq.accesses::total            738                       # number of ReadCleanReq accesses(hits+misses) (Count)
system.l2.ReadCleanReq.missRate::cpu.inst     0.789973                       # miss rate for ReadCleanReq accesses (Ratio)
system.l2.ReadCleanReq.missRate::total       0.789973                       # miss rate for ReadCleanReq accesses (Ratio)
system.l2.ReadCleanReq.avgMissLatency::cpu.inst 75548.885077                       # average ReadCleanReq miss latency ((Tick/Count))
system.l2.ReadCleanReq.avgMissLatency::total 75548.885077                       # average ReadCleanReq miss latency ((Tick/Count))
system.l2.ReadCleanReq.mshrMisses::cpu.inst          583                       # number of ReadCleanReq MSHR misses (Count)
system.l2.ReadCleanReq.mshrMisses::total          583                       # number of ReadCleanReq MSHR misses (Count)
system.l2.ReadCleanReq.mshrMissLatency::cpu.inst     38215000                       # number of ReadCleanReq MSHR miss ticks (Tick)
system.l2.ReadCleanReq.mshrMissLatency::total     38215000                       # number of ReadCleanReq MSHR miss ticks (Tick)
system.l2.ReadCleanReq.mshrMissRate::cpu.inst     0.789973                       # mshr miss rate for ReadCleanReq accesses (Ratio)
system.l2.ReadCleanReq.mshrMissRate::total     0.789973                       # mshr miss rate for ReadCleanReq accesses (Ratio)
system.l2.ReadCleanReq.avgMshrMissLatency::cpu.inst 65548.885077                       # average ReadCleanReq mshr miss latency ((Tick/Count))
system.l2.ReadCleanReq.avgMshrMissLatency::total 65548.885077                       # average ReadCleanReq mshr miss latency ((Tick/Count))
system.l2.ReadExReq.misses::cpu.data          1779001                       # number of ReadExReq misses (Count)
system.l2.ReadExReq.misses::total             1779001                       # number of ReadExReq misses (Count)
system.l2.ReadExReq.missLatency::cpu.data 154401448000                       # number of ReadExReq miss ticks (Tick)
system.l2.ReadExReq.missLatency::total   154401448000                       # number of ReadExReq miss ticks (Tick)
system.l2.ReadExReq.accesses::cpu.data        1779001                       # number of ReadExReq accesses(hits+misses) (Count)
system.l2.ReadExReq.accesses::total           1779001                       # number of ReadExReq accesses(hits+misses) (Count)
system.l2.ReadExReq.missRate::cpu.data              1                       # miss rate for ReadExReq accesses (Ratio)
system.l2.ReadExReq.missRate::total                 1                       # miss rate for ReadExReq accesses (Ratio)
system.l2.ReadExReq.avgMissLatency::cpu.data 86791.096801                       # average ReadExReq miss latency ((Tick/Count))
system.l2.ReadExReq.avgMissLatency::total 86791.096801                       # average ReadExReq miss latency ((Tick/Count))
system.l2.ReadExReq.mshrMisses::cpu.data      1779001                       # number of ReadExReq MSHR misses (Count)
system.l2.ReadExReq.mshrMisses::total         1779001                       # number of ReadExReq MSHR misses (Count)
system.l2.ReadExReq.mshrMissLatency::cpu.data 136611438000                       # number of ReadExReq MSHR miss ticks (Tick)
system.l2.ReadExReq.mshrMissLatency::total 136611438000                       # number of ReadExReq MSHR miss ticks (Tick)
system.l2.ReadExReq.mshrMissRate::cpu.data            1                       # mshr miss rate for ReadExReq accesses (Ratio)
system.l2.ReadExReq.mshrMissRate::total             1                       # mshr miss rate for ReadExReq accesses (Ratio)
system.l2.ReadExReq.avgMshrMissLatency::cpu.data 76791.096801                       # average ReadExReq mshr miss latency ((Tick/Count))
system.l2.ReadExReq.avgMshrMissLatency::total 76791.096801                       # average ReadExReq mshr miss latency ((Tick/Count))
system.l2.ReadSharedReq.misses::cpu.data          105                       # number of ReadSharedReq misses (Count)
system.l2.ReadSharedReq.misses::total             105                       # number of ReadSharedReq misses (Count)
system.l2.ReadSharedReq.missLatency::cpu.data      8286000                       # number of ReadSharedReq miss ticks (Tick)
system.l2.ReadSharedReq.missLatency::total      8286000                       # number of ReadSharedReq miss ticks (Tick)
system.l2.ReadSharedReq.accesses::cpu.data          105                       # number of ReadSharedReq accesses(hits+misses) (Count)
system.l2.ReadSharedReq.accesses::total           105                       # number of ReadSharedReq accesses(hits+misses) (Count)
system.l2.ReadSharedReq.missRate::cpu.data            1                       # miss rate for ReadSharedReq accesses (Ratio)
system.l2.ReadSharedReq.missRate::total             1                       # miss rate for ReadSharedReq accesses (Ratio)
system.l2.ReadSharedReq.avgMissLatency::cpu.data 78914.285714                       # average ReadSharedReq miss latency ((Tick/Count))
system.l2.ReadSharedReq.avgMissLatency::total 78914.285714                       # average ReadSharedReq miss latency ((Tick/Count))
system.l2.ReadSharedReq.mshrMisses::cpu.data          105                       # number of ReadSharedReq MSHR misses (Count)
system.l2.ReadSharedReq.mshrMisses::total          105                       # number of ReadSharedReq MSHR misses (Count)
system.l2.ReadSharedReq.mshrMissLatency::cpu.data      7236000                       # number of ReadSharedReq MSHR miss ticks (Tick)
system.l2.ReadSharedReq.mshrMissLatency::total      7236000                       # number of ReadSharedReq MSHR miss ticks (Tick)
system.l2.ReadSharedReq.mshrMissRate::cpu.data            1                       # mshr miss rate for ReadSharedReq accesses (Ratio)
system.l2.ReadSharedReq.mshrMissRate::total            1                       # mshr miss rate for ReadSharedReq accesses (Ratio)
system.l2.ReadSharedReq.avgMshrMissLatency::cpu.data 68914.285714                       # average ReadSharedReq mshr miss latency ((Tick/Count))
system.l2.ReadSharedReq.avgMshrMissLatency::total 68914.285714                       # average ReadSharedReq mshr miss latency ((Tick/Count))
system.l2.WritebackClean.hits::writebacks          489                       # number of WritebackClean hits (Count)
system.l2.WritebackClean.hits::total              489                       # number of WritebackClean hits (Count)
system.l2.WritebackClean.accesses::writebacks          489                       # number of WritebackClean accesses(hits+misses) (Count)
system.l2.WritebackClean.accesses::total          489                       # number of WritebackClean accesses(hits+misses) (Count)
system.l2.WritebackDirty.hits::writebacks      1778004                       # number of WritebackDirty hits (Count)
system.l2.WritebackDirty.hits::total          1778004                       # number of WritebackDirty hits (Count)
system.l2.WritebackDirty.accesses::writebacks      1778004                       # number of WritebackDirty accesses(hits+misses) (Count)
system.l2.WritebackDirty.accesses::total      1778004                       # number of WritebackDirty accesses(hits+misses) (Count)
system.l2.power_state.pwrStateResidencyTicks::UNDEFINED 106665607000                       # Cumulative time (in ticks) in various power states (Tick)
system.l2.tags.tagsInUse                 32497.439921                       # Average ticks per tags in use ((Tick/Count))
system.l2.tags.totalRefs                      3558422                       # Total number of references to valid blocks. (Count)
system.l2.tags.sampledRefs                    1779696                       # Sample count of references to valid blocks. (Count)
system.l2.tags.avgRefs                       1.999455                       # Average number of references to valid blocks. ((Count/Count))
system.l2.tags.warmupTick                       77000                       # The tick when the warmup percentage was hit. (Tick)
system.l2.tags.occupancies::writebacks       0.109340                       # Average occupied blocks per tick, per requestor ((Count/Tick))
system.l2.tags.occupancies::cpu.inst         8.859121                       # Average occupied blocks per tick, per requestor ((Count/Tick))
system.l2.tags.occupancies::cpu.data     32488.471461                       # Average occupied blocks per tick, per requestor ((Count/Tick))
system.l2.tags.avgOccs::writebacks           0.000003                       # Average percentage of cache occupancy ((Ratio/Tick))
system.l2.tags.avgOccs::cpu.inst             0.000270                       # Average percentage of cache occupancy ((Ratio/Tick))
system.l2.tags.avgOccs::cpu.data             0.991469                       # Average percentage of cache occupancy ((Ratio/Tick))
system.l2.tags.avgOccs::total                0.991743                       # Average percentage of cache occupancy ((Ratio/Tick))
system.l2.tags.occupanciesTaskId::1024          32768                       # Occupied blocks per task id (Count)
system.l2.tags.ageTaskId_1024::0                  165                       # Occupied blocks per task id, per block age (Count)
system.l2.tags.ageTaskId_1024::1                 1499                       # Occupied blocks per task id, per block age (Count)
system.l2.tags.ageTaskId_1024::2                14980                       # Occupied blocks per task id, per block age (Count)
system.l2.tags.ageTaskId_1024::3                16124                       # Occupied blocks per task id, per block age (Count)
system.l2.tags.ratioOccsTaskId::1024                1                       # Ratio of occupied blocks and all blocks, per task id (Ratio)
system.l2.tags.tagAccesses                   30247128                       # Number of tag accesses (Count)
[...]
system.mem_ctrls.dram.perBankWrBursts::12       109184                       # Per bank write bursts (Count)
system.mem_ctrls.dram.perBankWrBursts::13       109184                       # Per bank write bursts (Count)
system.mem_ctrls.dram.perBankWrBursts::14       109184                       # Per bank write bursts (Count)
system.mem_ctrls.dram.perBankWrBursts::15       109184                       # Per bank write bursts (Count)
system.mem_ctrls.dram.totQLat             30030143000                       # Total ticks spent queuing (Tick)
system.mem_ctrls.dram.totBusLat            8898445000                       # Total ticks spent in databus transfers (Tick)
system.mem_ctrls.dram.totMemAccLat        63399311750                       # Total ticks spent from burst creation until serviced by the DRAM (Tick)
system.mem_ctrls.dram.avgQLat                16873.82                       # Average queueing delay per DRAM burst ((Tick/Count))
system.mem_ctrls.dram.avgBusLat               5000.00                       # Average bus latency per DRAM burst ((Tick/Count))
system.mem_ctrls.dram.avgMemAccLat           35623.82                       # Average memory access latency per DRAM burst ((Tick/Count))
system.mem_ctrls.dram.readRowHits             1613738                       # Number of row buffer hits during reads (Count)
system.mem_ctrls.dram.writeRowHits            1620915                       # Number of row buffer hits during writes (Count)
system.mem_ctrls.dram.readRowHitRate            90.68                       # Row buffer hit rate for reads (Ratio)
system.mem_ctrls.dram.writeRowHitRate           92.82                       # Row buffer hit rate for writes (Ratio)
system.mem_ctrls.dram.bytesPerActivate::samples       291271                       # Bytes accessed per row activation (Byte)
system.mem_ctrls.dram.bytesPerActivate::mean   774.737478                       # Bytes accessed per row activation (Byte)
system.mem_ctrls.dram.bytesPerActivate::gmean   579.709326                       # Bytes accessed per row activation (Byte)
system.mem_ctrls.dram.bytesPerActivate::stdev   371.244250                       # Bytes accessed per row activation (Byte)
system.mem_ctrls.dram.bytesPerActivate::0-127        32135     11.03%     11.03% # Bytes accessed per row activation (Byte)
system.mem_ctrls.dram.bytesPerActivate::128-255        25785      8.85%     19.89% # Bytes accessed per row activation (Byte)
system.mem_ctrls.dram.bytesPerActivate::256-383         9338      3.21%     23.09% # Bytes accessed per row activation (Byte)
system.mem_ctrls.dram.bytesPerActivate::384-511         3772      1.30%     24.39% # Bytes accessed per row activation (Byte)
system.mem_ctrls.dram.bytesPerActivate::512-639         3073      1.06%     25.44% # Bytes accessed per row activation (Byte)
system.mem_ctrls.dram.bytesPerActivate::640-767         4072      1.40%     26.84% # Bytes accessed per row activation (Byte)
system.mem_ctrls.dram.bytesPerActivate::768-895        14434      4.96%     31.79% # Bytes accessed per row activation (Byte)
system.mem_ctrls.dram.bytesPerActivate::896-1023        45853     15.74%     47.54% # Bytes accessed per row activation (Byte)
system.mem_ctrls.dram.bytesPerActivate::1024-1151       152809     52.46%    100.00% # Bytes accessed per row activation (Byte)
system.mem_ctrls.dram.bytesPerActivate::total       291271                       # Bytes accessed per row activation (Byte)
system.mem_ctrls.dram.bytesRead             113900096                       # Total bytes read (Byte)
system.mem_ctrls.dram.bytesWritten          111759104                       # Total bytes written (Byte)
system.mem_ctrls.dram.avgRdBW             1067.824008                       # Average DRAM read bandwidth in MiBytes/s ((Byte/Second))
system.mem_ctrls.dram.avgWrBW             1047.752009                       # Average DRAM write bandwidth in MiBytes/s ((Byte/Second))
system.mem_ctrls.dram.peakBW                 12800.00                       # Theoretical peak bandwidth in MiByte/s ((Byte/Second))
system.mem_ctrls.dram.busUtil                   16.53                       # Data bus utilization in percentage (Ratio)
system.mem_ctrls.dram.busUtilRead                8.34                       # Data bus utilization in percentage for reads (Ratio)
system.mem_ctrls.dram.busUtilWrite               8.19                       # Data bus utilization in percentage for writes (Ratio)
system.mem_ctrls.dram.pageHitRate               91.74                       # Row buffer hit rate, read and write combined (Ratio)
system.mem_ctrls.dram.power_state.pwrStateResidencyTicks::UNDEFINED 106665607000                       # Cumulative time (in ticks) in various power states (Tick)
system.mem_ctrls.dram.rank0.actEnergy      1037577660                       # Energy for activate commands per rank (pJ) (Joule)
system.mem_ctrls.dram.rank0.preEnergy       551481810                       # Energy for precharge commands per rank (pJ) (Joule)
system.mem_ctrls.dram.rank0.readEnergy     6351572640                       # Energy for read commands per rank (pJ) (Joule)
system.mem_ctrls.dram.rank0.writeEnergy    4556156940                       # Energy for write commands per rank (pJ) (Joule)
system.mem_ctrls.dram.rank0.refreshEnergy 8419953360.000001                       # Energy for refresh commands per rank (pJ) (Joule)
system.mem_ctrls.dram.rank0.actBackEnergy  25899055800                       # Energy for active background per rank (pJ) (Joule)
system.mem_ctrls.dram.rank0.preBackEnergy  19149862080                       # Energy for precharge background per rank (pJ) (Joule)
system.mem_ctrls.dram.rank0.actPowerDownEnergy            0                       # Energy for active power-down per rank (pJ) (Joule)
system.mem_ctrls.dram.rank0.prePowerDownEnergy            0                       # Energy for precharge power-down per rank (pJ) (Joule)
system.mem_ctrls.dram.rank0.selfRefreshEnergy            0                       # Energy for self refresh per rank (pJ) (Joule)
system.mem_ctrls.dram.rank0.totalEnergy   65965660290                       # Total energy per rank (pJ) (Joule)
system.mem_ctrls.dram.rank0.averagePower   618.434209                       # Core power per rank (mW) (Watt)
system.mem_ctrls.dram.rank0.totalIdleTime            0                       # Total Idle time Per DRAM Rank (Tick)
system.mem_ctrls.dram.rank0.pwrStateTime::IDLE  48817708750                       # Time in different power states (Tick)
system.mem_ctrls.dram.rank0.pwrStateTime::REF   3561740000                       # Time in different power states (Tick)
system.mem_ctrls.dram.rank0.pwrStateTime::SREF            0                       # Time in different power states (Tick)
system.mem_ctrls.dram.rank0.pwrStateTime::PRE_PDN            0                       # Time in different power states (Tick)
system.mem_ctrls.dram.rank0.pwrStateTime::ACT  54286158250                       # Time in different power states (Tick)
system.mem_ctrls.dram.rank0.pwrStateTime::ACT_PDN            0                       # Time in different power states (Tick)
system.mem_ctrls.dram.rank1.actEnergy      1042104420                       # Energy for activate commands per rank (pJ) (Joule)
system.mem_ctrls.dram.rank1.preEnergy       553891635                       # Energy for precharge commands per rank (pJ) (Joule)
system.mem_ctrls.dram.rank1.readEnergy     6355406820                       # Energy for read commands per rank (pJ) (Joule)
system.mem_ctrls.dram.rank1.writeEnergy    4559194980                       # Energy for write commands per rank (pJ) (Joule)
system.mem_ctrls.dram.rank1.refreshEnergy 8419953360.000001                       # Energy for refresh commands per rank (pJ) (Joule)
system.mem_ctrls.dram.rank1.actBackEnergy  26138938590                       # Energy for active background per rank (pJ) (Joule)
system.mem_ctrls.dram.rank1.preBackEnergy  18947855520                       # Energy for precharge background per rank (pJ) (Joule)
system.mem_ctrls.dram.rank1.actPowerDownEnergy            0                       # Energy for active power-down per rank (pJ) (Joule)
system.mem_ctrls.dram.rank1.prePowerDownEnergy            0                       # Energy for precharge power-down per rank (pJ) (Joule)
system.mem_ctrls.dram.rank1.selfRefreshEnergy            0                       # Energy for self refresh per rank (pJ) (Joule)
system.mem_ctrls.dram.rank1.totalEnergy   66017345325                       # Total energy per rank (pJ) (Joule)
system.mem_ctrls.dram.rank1.averagePower   618.918761                       # Core power per rank (mW) (Watt)
system.mem_ctrls.dram.rank1.totalIdleTime            0                       # Total Idle time Per DRAM Rank (Tick)
system.mem_ctrls.dram.rank1.pwrStateTime::IDLE  48191153250                       # Time in different power states (Tick)
system.mem_ctrls.dram.rank1.pwrStateTime::REF   3561740000                       # Time in different power states (Tick)
system.mem_ctrls.dram.rank1.pwrStateTime::SREF            0                       # Time in different power states (Tick)
system.mem_ctrls.dram.rank1.pwrStateTime::PRE_PDN            0                       # Time in different power states (Tick)
system.mem_ctrls.dram.rank1.pwrStateTime::ACT  54912713750                       # Time in different power states (Tick)
system.mem_ctrls.dram.rank1.pwrStateTime::ACT_PDN            0                       # Time in different power states (Tick)
system.mem_ctrls.power_state.pwrStateResidencyTicks::UNDEFINED 106665607000                       # Cumulative time (in ticks) in various power states (Tick)
system.membus.transDist::ReadResp                 688                       # Transaction distribution (Count)
system.membus.transDist::WritebackDirty       1746260                       # Transaction distribution (Count)
system.membus.transDist::CleanEvict               420                       # Transaction distribution (Count)
system.membus.transDist::ReadExReq            1779001                       # Transaction distribution (Count)
system.membus.transDist::ReadExResp           1779001                       # Transaction distribution (Count)
system.membus.transDist::ReadSharedReq            688                       # Transaction distribution (Count)
system.membus.transDist::InvalidateReq              7                       # Transaction distribution (Count)
system.membus.pktCount_system.l2.mem_side_port::system.mem_ctrls.port      5306065                       # Packet count per connected requestor and responder (Count)
system.membus.pktCount::total                 5306065                       # Packet count per connected requestor and responder (Count)
system.membus.pktSize_system.l2.mem_side_port::system.mem_ctrls.port    225660736                       # Cumulative packet size per connected requestor and responder (Byte)
system.membus.pktSize::total                225660736                       # Cumulative packet size per connected requestor and responder (Byte)
system.membus.snoops                                0                       # Total snoops (Count)
system.membus.snoopTraffic                          0                       # Total snoop traffic (Byte)
system.membus.snoopFanout::samples            1779696                       # Request fanout histogram (Count)
system.membus.snoopFanout::mean                     0                       # Request fanout histogram (Count)
system.membus.snoopFanout::stdev                    0                       # Request fanout histogram (Count)
system.membus.snoopFanout::underflows               0      0.00%      0.00% # Request fanout histogram (Count)
system.membus.snoopFanout::0                  1779696    100.00%    100.00% # Request fanout histogram (Count)
system.membus.snoopFanout::1                        0      0.00%    100.00% # Request fanout histogram (Count)
system.membus.snoopFanout::overflows                0      0.00%    100.00% # Request fanout histogram (Count)
system.membus.snoopFanout::min_value                0                       # Request fanout histogram (Count)
system.membus.snoopFanout::max_value                0                       # Request fanout histogram (Count)
system.membus.snoopFanout::total              1779696                       # Request fanout histogram (Count)
system.membus.power_state.pwrStateResidencyTicks::UNDEFINED 106665607000                       # Cumulative time (in ticks) in various power states (Tick)
system.membus.reqLayer0.occupancy         11045184500                       # Layer occupancy (ticks) (Tick)
system.membus.reqLayer0.utilization               0.1                       # Layer utilization (Ratio)
system.membus.respLayer1.occupancy         9277117250                       # Layer occupancy (ticks) (Tick)
system.membus.respLayer1.utilization              0.1                       # Layer utilization (Ratio)
system.membus.snoop_filter.totRequests        3526376                       # Total number of requests made to the snoop filter. (Count)
system.membus.snoop_filter.hitSingleRequests      1746680                       # Number of requests hitting in the snoop filter with a single holder of the requested data. (Count)
system.membus.snoop_filter.hitMultiRequests            0                       # Number of requests hitting in the snoop filter with multiple (>1) holders of the requested data. (Count)
system.membus.snoop_filter.totSnoops                0                       # Total number of snoops made to the snoop filter. (Count)
system.membus.snoop_filter.hitSingleSnoops            0                       # Number of snoops hitting in the snoop filter with a single holder of the requested data. (Count)
system.membus.snoop_filter.hitMultiSnoops            0                       # Number of snoops hitting in the snoop filter with multiple (>1) holders of the requested data. (Count)
system.tol2bus.transDist::ReadResp                843                       # Transaction distribution (Count)
system.tol2bus.transDist::WritebackDirty      3524264                       # Transaction distribution (Count)
system.tol2bus.transDist::WritebackClean          490                       # Transaction distribution (Count)
system.tol2bus.transDist::CleanEvict              753                       # Transaction distribution (Count)
system.tol2bus.transDist::ReadExReq           1779001                       # Transaction distribution (Count)
system.tol2bus.transDist::ReadExResp          1779001                       # Transaction distribution (Count)
system.tol2bus.transDist::ReadCleanReq            738                       # Transaction distribution (Count)
system.tol2bus.transDist::ReadSharedReq           105                       # Transaction distribution (Count)
system.tol2bus.transDist::InvalidateReq             7                       # Transaction distribution (Count)
system.tol2bus.transDist::InvalidateResp            7                       # Transaction distribution (Count)
system.tol2bus.pktCount_system.cpu.icache.mem_side_port::system.l2.cpu_side_port         1966                       # Packet count per connected requestor and responder (Count)
system.tol2bus.pktCount_system.cpu.dcache.mem_side_port::system.l2.cpu_side_port      5336315                       # Packet count per connected requestor and responder (Count)
system.tol2bus.pktCount::total                5338281                       # Packet count per connected requestor and responder (Count)
system.tol2bus.pktSize_system.cpu.icache.mem_side_port::system.l2.cpu_side_port        78592                       # Cumulative packet size per connected requestor and responder (Byte)
system.tol2bus.pktSize_system.cpu.dcache.mem_side_port::system.l2.cpu_side_port    227655040                       # Cumulative packet size per connected requestor and responder (Byte)
system.tol2bus.pktSize::total               227733632                       # Cumulative packet size per connected requestor and responder (Byte)
system.tol2bus.snoops                         1746928                       # Total snoops (Count)
system.tol2bus.snoopTraffic                 111760640                       # Total snoop traffic (Byte)
system.tol2bus.snoopFanout::samples           3526779                       # Request fanout histogram (Count)
system.tol2bus.snoopFanout::mean             0.000071                       # Request fanout histogram (Count)
system.tol2bus.snoopFanout::stdev            0.008402                       # Request fanout histogram (Count)
system.tol2bus.snoopFanout::underflows              0      0.00%      0.00% # Request fanout histogram (Count)
system.tol2bus.snoopFanout::0                 3526530     99.99%     99.99% # Request fanout histogram (Count)
system.tol2bus.snoopFanout::1                     249      0.01%    100.00% # Request fanout histogram (Count)
system.tol2bus.snoopFanout::2                       0      0.00%    100.00% # Request fanout histogram (Count)
system.tol2bus.snoopFanout::overflows               0      0.00%    100.00% # Request fanout histogram (Count)
system.tol2bus.snoopFanout::min_value               0                       # Request fanout histogram (Count)
system.tol2bus.snoopFanout::max_value               1                       # Request fanout histogram (Count)
system.tol2bus.snoopFanout::total             3526779                       # Request fanout histogram (Count)
system.tol2bus.power_state.pwrStateResidencyTicks::UNDEFINED 106665607000                       # Cumulative time (in ticks) in various power states (Tick)
system.tol2bus.reqLayer0.occupancy         3557709000                       # Layer occupancy (ticks) (Tick)
system.tol2bus.reqLayer0.utilization              0.0                       # Layer utilization (Ratio)
system.tol2bus.respLayer0.occupancy           1107000                       # Layer occupancy (ticks) (Tick)
system.tol2bus.respLayer0.utilization             0.0                       # Layer utilization (Ratio)
system.tol2bus.respLayer1.occupancy        2668662500                       # Layer occupancy (ticks) (Tick)
system.tol2bus.respLayer1.utilization             0.0                       # Layer utilization (Ratio)
system.tol2bus.snoop_filter.totRequests       3558430                       # Total number of requests made to the snoop filter. (Count)
system.tol2bus.snoop_filter.hitSingleRequests      1778579                       # Number of requests hitting in the snoop filter with a single holder of the requested data. (Count)
system.tol2bus.snoop_filter.hitMultiRequests            1                       # Number of requests hitting in the snoop filter with multiple (>1) holders of the requested data. (Count)
system.tol2bus.snoop_filter.totSnoops             248                       # Total number of snoops made to the snoop filter. (Count)
system.tol2bus.snoop_filter.hitSingleSnoops          248                       # Number of snoops hitting in the snoop filter with a single holder of the requested data. (Count)
system.tol2bus.snoop_filter.hitMultiSnoops            0                       # Number of snoops hitting in the snoop filter with multiple (>1) holders of the requested data. (Count)
system.voltage_domain.voltage                       1                       # Voltage in Volts (Volt)
system.workload.inst.arm                            0                       # number of arm instructions executed (Count)
system.workload.inst.quiesce                        0                       # number of quiesce instructions executed (Count)
system.cpu.idleCycles                       180983282                       # Total number of cycles that the object has spent stopped (Unspecified)
system.cpu.tickCycles                        32347932                       # Number of cycles that the object actually ticked (Unspecified)

---------- End Simulation Statistics   ----------
