
---------- Begin Simulation Statistics ----------
simSeconds                                   0.009535                       # Number of seconds simulated (Second)
simTicks                                   9535100500                       # Number of ticks simulated (Tick)
finalTick                                  9535100500                       # Number of ticks from beginning of simulation (restored from checkpoints and never reset) (Tick)
simFreq                                  1000000000000                       # The number of ticks per simulated second ((Tick/Second))
hostSeconds                                     45.39                       # Real time elapsed on the host (Second)
hostTickRate                                210065454                       # The number of ticks simulated per host second (ticks/s) ((Tick/Second))
hostMemory                                    8725352                       # Number of bytes of host memory used (Byte)
simInsts                                     10000000                       # Number of instructions simulated (Count)
simOps                                       11078096                       # Number of ops (including micro ops) simulated (Count)
hostInstRate                                   220306                       # Simulator instruction rate (inst/s) ((Count/Second))
hostOpRate                                     244057                       # Simulator op (including micro ops) rate (op/s) ((Count/Second))
system.clk_domain.clock                          1000                       # Clock period in ticks (Tick)
system.cpu.numCycles                         19070201                       # Number of cpu cycles simulated (Cycle)
system.cpu.numWorkItemsStarted                      0                       # Number of work items this cpu started (Count)
system.cpu.numWorkItemsCompleted                    0                       # Number of work items this cpu completed (Count)
system.cpu.numInsts                          10000000                       # Number of instructions committed (Count)
system.cpu.numOps                            11078096                       # Number of ops (including micro ops) committed (Count)
system.cpu.numDiscardedOps                      69916                       # Number of ops (including micro ops) which were discarded before commit (Count)
system.cpu.numFetchSuspends                         0                       # Number of times Execute suspended instruction fetching (Count)
system.cpu.cpi                               1.907020                       # CPI: cycles per instruction ((Cycle/Count))
system.cpu.ipc                               0.524378                       # IPC: instructions per cycle ((Count/Cycle))
system.cpu.committedInstType_0::No_OpClass          184      0.00%      0.00% # Class of committed instruction (Count)
system.cpu.committedInstType_0::IntAlu        7880252     71.13%     71.14% # Class of committed instruction (Count)
system.cpu.committedInstType_0::IntMult         38696      0.35%     71.48% # Class of committed instruction (Count)
system.cpu.committedInstType_0::IntDiv          10422      0.09%     71.58% # Class of committed instruction (Count)
system.cpu.committedInstType_0::FloatAdd         5098      0.05%     71.62% # Class of committed instruction (Count)
system.cpu.committedInstType_0::FloatCmp            6      0.00%     71.62% # Class of committed instruction (Count)
system.cpu.committedInstType_0::FloatCvt            0      0.00%     71.62% # Class of committed instruction (Count)
system.cpu.committedInstType_0::FloatMult           15      0.00%     71.62% # Class of committed instruction (Count)
system.cpu.committedInstType_0::FloatMultAcc           21      0.00%     71.63% # Class of committed instruction (Count)
system.cpu.committedInstType_0::FloatDiv            9      0.00%     71.63% # Class of committed instruction (Count)
system.cpu.committedInstType_0::FloatMisc        18228      0.16%     71.79% # Class of committed instruction (Count)
system.cpu.committedInstType_0::FloatSqrt            0      0.00%     71.79% # Class of committed instruction (Count)
system.cpu.committedInstType_0::SimdAdd           429      0.00%     71.79% # Class of committed instruction (Count)
system.cpu.committedInstType_0::SimdAddAcc            0      0.00%     71.79% # Class of committed instruction (Count)
system.cpu.committedInstType_0::SimdAlu           645      0.01%     71.80% # Class of committed instruction (Count)
system.cpu.committedInstType_0::SimdCmp           594      0.01%     71.80% # Class of committed instruction (Count)
system.cpu.committedInstType_0::SimdCvt             0      0.00%     71.80% # Class of committed instruction (Count)
system.cpu.committedInstType_0::SimdMisc          524      0.00%     71.81% # Class of committed instruction (Count)
system.cpu.committedInstType_0::SimdMult            0      0.00%     71.81% # Class of committed instruction (Count)
system.cpu.committedInstType_0::SimdMultAcc            0      0.00%     71.81% # Class of committed instruction (Count)
system.cpu.committedInstType_0::SimdShift            0      0.00%     71.81% # Class of committed instruction (Count)
system.cpu.committedInstType_0::SimdShiftAcc            0      0.00%     71.81% # Class of committed instruction (Count)
system.cpu.committedInstType_0::SimdDiv             0      0.00%     71.81% # Class of committed instruction (Count)
system.cpu.committedInstType_0::SimdSqrt            0      0.00%     71.81% # Class of committed instruction (Count)
system.cpu.committedInstType_0::SimdFloatAdd            0      0.00%     71.81% # Class of committed instruction (Count)
system.cpu.committedInstType_0::SimdFloatAlu            0      0.00%     71.81% # Class of committed instruction (Count)
system.cpu.committedInstType_0::SimdFloatCmp            0      0.00%     71.81% # Class of committed instruction (Count)
system.cpu.committedInstType_0::SimdFloatCvt            0      0.00%     71.81% # Class of committed instruction (Count)
system.cpu.committedInstType_0::SimdFloatDiv            0      0.00%     71.81% # Class of committed instruction (Count)
system.cpu.committedInstType_0::SimdFloatMisc            0      0.00%     71.81% # Class of committed instruction (Count)
system.cpu.committedInstType_0::SimdFloatMult            0      0.00%     71.81% # Class of committed instruction (Count)
system.cpu.committedInstType_0::SimdFloatMultAcc            0      0.00%     71.81% # Class of committed instruction (Count)
system.cpu.committedInstType_0::SimdFloatSqrt            0      0.00%     71.81% # Class of committed instruction (Count)
system.cpu.committedInstType_0::SimdReduceAdd            0      0.00%     71.81% # Class of committed instruction (Count)
system.cpu.committedInstType_0::SimdReduceAlu            0      0.00%     71.81% # Class of committed instruction (Count)
system.cpu.committedInstType_0::SimdReduceCmp            0      0.00%     71.81% # Class of committed instruction (Count)
system.cpu.committedInstType_0::SimdFloatReduceAdd            0      0.00%     71.81% # Class of committed instruction (Count)
system.cpu.committedInstType_0::SimdFloatReduceCmp            0      0.00%     71.81% # Class of committed instruction (Count)
system.cpu.committedInstType_0::SimdAes             0      0.00%     71.81% # Class of committed instruction (Count)
system.cpu.committedInstType_0::SimdAesMix            0      0.00%     71.81% # Class of committed instruction (Count)
system.cpu.committedInstType_0::SimdSha1Hash            0      0.00%     71.81% # Class of committed instruction (Count)
system.cpu.committedInstType_0::SimdSha1Hash2            0      0.00%     71.81% # Class of committed instruction (Count)
system.cpu.committedInstType_0::SimdSha256Hash            0      0.00%     71.81% # Class of committed instruction (Count)
system.cpu.committedInstType_0::SimdSha256Hash2            0      0.00%     71.81% # Class of committed instruction (Count)
system.cpu.committedInstType_0::SimdShaSigma2            0      0.00%     71.81% # Class of committed instruction (Count)
system.cpu.committedInstType_0::SimdShaSigma3            0      0.00%     71.81% # Class of committed instruction (Count)
system.cpu.committedInstType_0::SimdPredAlu            0      0.00%     71.81% # Class of committed instruction (Count)
system.cpu.committedInstType_0::MemRead       1800500     16.25%     88.06% # Class of committed instruction (Count)
system.cpu.committedInstType_0::MemWrite      1322473     11.94%    100.00% # Class of committed instruction (Count)
system.cpu.committedInstType_0::FloatMemRead            0      0.00%    100.00% # Class of committed instruction (Count)
system.cpu.committedInstType_0::FloatMemWrite            0      0.00%    100.00% # Class of committed instruction (Count)
system.cpu.committedInstType_0::IprAccess            0      0.00%    100.00% # Class of committed instruction (Count)
system.cpu.committedInstType_0::InstPrefetch            0      0.00%    100.00% # Class of committed instruction (Count)
system.cpu.committedInstType_0::total        11078096                       # Class of committed instruction (Count)
system.cpu.branchPred.lookups                 2206788                       # Number of BP lookups (Count)
system.cpu.branchPred.condPredicted           1729279                       # Number of conditional branches predicted (Count)
system.cpu.branchPred.condIncorrect             30142                       # Number of conditional branches incorrect (Count)
system.cpu.branchPred.BTBLookups              1078008                       # Number of BTB lookups (Count)
system.cpu.branchPred.BTBHits                 1074944                       # Number of BTB hits (Count)
system.cpu.branchPred.BTBHitRatio            0.997158                       # BTB Hit Ratio (Ratio)
system.cpu.branchPred.RASUsed                   99050                       # Number of times the RAS was used to get a target. (Count)
system.cpu.branchPred.RASIncorrect                 11                       # Number of incorrect RAS predictions. (Count)
system.cpu.branchPred.indirectLookups           29633                       # Number of indirect predictor lookups. (Count)
system.cpu.branchPred.indirectHits              29311                       # Number of indirect target hits. (Count)
system.cpu.branchPred.indirectMisses              322                       # Number of indirect misses. (Count)
system.cpu.branchPred.indirectMispredicted          137                       # Number of mispredicted indirect branches. (Count)
system.cpu.constantVU.cvuLoadLookups                0                       # Number of CVU Load Lookups (Count)
system.cpu.constantVU.cvuStoreLookups         1322412                       # Number of CVU Store Lookups (Count)
system.cpu.constantVU.loadMatched                   0                       # Number of loads that matched (Count)
system.cpu.constantVU.loadMatchedIncorrect      1322412                       # Number of loads that did not matched (Count)
system.cpu.dcache.demandHits::cpu.data        3100641                       # number of demand (read+write) hits (Count)
system.cpu.dcache.demandHits::total           3100641                       # number of demand (read+write) hits (Count)
system.cpu.dcache.overallHits::cpu.data       3113862                       # number of overall hits (Count)
system.cpu.dcache.overallHits::total          3113862                       # number of overall hits (Count)
system.cpu.dcache.demandMisses::cpu.data         4833                       # number of demand (read+write) misses (Count)
system.cpu.dcache.demandMisses::total            4833                       # number of demand (read+write) misses (Count)
system.cpu.dcache.overallMisses::cpu.data         4836                       # number of overall misses (Count)
system.cpu.dcache.overallMisses::total           4836                       # number of overall misses (Count)
system.cpu.dcache.demandMissLatency::cpu.data    404055000                       # number of demand (read+write) miss ticks (Tick)
system.cpu.dcache.demandMissLatency::total    404055000                       # number of demand (read+write) miss ticks (Tick)
system.cpu.dcache.overallMissLatency::cpu.data    404055000                       # number of overall miss ticks (Tick)
system.cpu.dcache.overallMissLatency::total    404055000                       # number of overall miss ticks (Tick)
system.cpu.dcache.demandAccesses::cpu.data      3105474                       # number of demand (read+write) accesses (Count)
system.cpu.dcache.demandAccesses::total       3105474                       # number of demand (read+write) accesses (Count)
system.cpu.dcache.overallAccesses::cpu.data      3118698                       # number of overall (read+write) accesses (Count)
system.cpu.dcache.overallAccesses::total      3118698                       # number of overall (read+write) accesses (Count)
system.cpu.dcache.demandMissRate::cpu.data     0.001556                       # miss rate for demand accesses (Ratio)
system.cpu.dcache.demandMissRate::total      0.001556                       # miss rate for demand accesses (Ratio)
system.cpu.dcache.overallMissRate::cpu.data     0.001551                       # miss rate for overall accesses (Ratio)
system.cpu.dcache.overallMissRate::total     0.001551                       # miss rate for overall accesses (Ratio)
system.cpu.dcache.demandAvgMissLatency::cpu.data 83603.351955                       # average overall miss latency in ticks ((Tick/Count))
system.cpu.dcache.demandAvgMissLatency::total 83603.351955                       # average overall miss latency in ticks ((Tick/Count))
system.cpu.dcache.overallAvgMissLatency::cpu.data 83551.488834                       # average overall miss latency ((Tick/Count))
system.cpu.dcache.overallAvgMissLatency::total 83551.488834                       # average overall miss latency ((Tick/Count))
system.cpu.dcache.blockedCycles::no_mshrs            0                       # number of cycles access was blocked (Cycle)
system.cpu.dcache.blockedCycles::no_targets            0                       # number of cycles access was blocked (Cycle)
system.cpu.dcache.blockedCauses::no_mshrs            0                       # number of times access was blocked (Count)
system.cpu.dcache.blockedCauses::no_targets            0                       # number of times access was blocked (Count)
system.cpu.dcache.avgBlocked::no_mshrs            nan                       # average number of cycles each access was blocked ((Cycle/Count))
system.cpu.dcache.avgBlocked::no_targets          nan                       # average number of cycles each access was blocked ((Cycle/Count))
system.cpu.dcache.writebacks::writebacks         1370                       # number of writebacks (Count)
system.cpu.dcache.writebacks::total              1370                       # number of writebacks (Count)
system.cpu.dcache.demandMshrHits::cpu.data         2201                       # number of demand (read+write) MSHR hits (Count)
system.cpu.dcache.demandMshrHits::total          2201                       # number of demand (read+write) MSHR hits (Count)
system.cpu.dcache.overallMshrHits::cpu.data         2201                       # number of overall MSHR hits (Count)
system.cpu.dcache.overallMshrHits::total         2201                       # number of overall MSHR hits (Count)
system.cpu.dcache.demandMshrMisses::cpu.data         2632                       # number of demand (read+write) MSHR misses (Count)
system.cpu.dcache.demandMshrMisses::total         2632                       # number of demand (read+write) MSHR misses (Count)
system.cpu.dcache.overallMshrMisses::cpu.data         2635                       # number of overall MSHR misses (Count)
system.cpu.dcache.overallMshrMisses::total         2635                       # number of overall MSHR misses (Count)
system.cpu.dcache.demandMshrMissLatency::cpu.data    214208500                       # number of demand (read+write) MSHR miss ticks (Tick)
system.cpu.dcache.demandMshrMissLatency::total    214208500                       # number of demand (read+write) MSHR miss ticks (Tick)
system.cpu.dcache.overallMshrMissLatency::cpu.data    214440500                       # number of overall MSHR miss ticks (Tick)
system.cpu.dcache.overallMshrMissLatency::total    214440500                       # number of overall MSHR miss ticks (Tick)
system.cpu.dcache.demandMshrMissRate::cpu.data     0.000848                       # mshr miss ratio for demand accesses (Ratio)
system.cpu.dcache.demandMshrMissRate::total     0.000848                       # mshr miss ratio for demand accesses (Ratio)
system.cpu.dcache.overallMshrMissRate::cpu.data     0.000845                       # mshr miss ratio for overall accesses (Ratio)
system.cpu.dcache.overallMshrMissRate::total     0.000845                       # mshr miss ratio for overall accesses (Ratio)
system.cpu.dcache.demandAvgMshrMissLatency::cpu.data 81386.208207                       # average overall mshr miss latency ((Tick/Count))
system.cpu.dcache.demandAvgMshrMissLatency::total 81386.208207                       # average overall mshr miss latency ((Tick/Count))
system.cpu.dcache.overallAvgMshrMissLatency::cpu.data 81381.593928                       # average overall mshr miss latency ((Tick/Count))
system.cpu.dcache.overallAvgMshrMissLatency::total 81381.593928                       # average overall mshr miss latency ((Tick/Count))
system.cpu.dcache.replacements                   1611                       # number of replacements (Count)
system.cpu.dcache.LoadLockedReq.hits::cpu.data         4115                       # number of LoadLockedReq hits (Count)
system.cpu.dcache.LoadLockedReq.hits::total         4115                       # number of LoadLockedReq hits (Count)
system.cpu.dcache.LoadLockedReq.accesses::cpu.data         4115                       # number of LoadLockedReq accesses(hits+misses) (Count)
system.cpu.dcache.LoadLockedReq.accesses::total         4115                       # number of LoadLockedReq accesses(hits+misses) (Count)
system.cpu.dcache.ReadReq.hits::cpu.data      1786751                       # number of ReadReq hits (Count)
system.cpu.dcache.ReadReq.hits::total         1786751                       # number of ReadReq hits (Count)
system.cpu.dcache.ReadReq.misses::cpu.data          426                       # number of ReadReq misses (Count)
system.cpu.dcache.ReadReq.misses::total           426                       # number of ReadReq misses (Count)
system.cpu.dcache.ReadReq.missLatency::cpu.data     25294500                       # number of ReadReq miss ticks (Tick)
system.cpu.dcache.ReadReq.missLatency::total     25294500                       # number of ReadReq miss ticks (Tick)
system.cpu.dcache.ReadReq.accesses::cpu.data      1787177                       # number of ReadReq accesses(hits+misses) (Count)
system.cpu.dcache.ReadReq.accesses::total      1787177                       # number of ReadReq accesses(hits+misses) (Count)
system.cpu.dcache.ReadReq.missRate::cpu.data     0.000238                       # miss rate for ReadReq accesses (Ratio)
system.cpu.dcache.ReadReq.missRate::total     0.000238                       # miss rate for ReadReq accesses (Ratio)
system.cpu.dcache.ReadReq.avgMissLatency::cpu.data 59376.760563                       # average ReadReq miss latency ((Tick/Count))
system.cpu.dcache.ReadReq.avgMissLatency::total 59376.760563                       # average ReadReq miss latency ((Tick/Count))
system.cpu.dcache.ReadReq.mshrHits::cpu.data           20                       # number of ReadReq MSHR hits (Count)
system.cpu.dcache.ReadReq.mshrHits::total           20                       # number of ReadReq MSHR hits (Count)
system.cpu.dcache.ReadReq.mshrMisses::cpu.data          406                       # number of ReadReq MSHR misses (Count)
system.cpu.dcache.ReadReq.mshrMisses::total          406                       # number of ReadReq MSHR misses (Count)
system.cpu.dcache.ReadReq.mshrMissLatency::cpu.data     23279500                       # number of ReadReq MSHR miss ticks (Tick)
system.cpu.dcache.ReadReq.mshrMissLatency::total     23279500                       # number of ReadReq MSHR miss ticks (Tick)
system.cpu.dcache.ReadReq.mshrMissRate::cpu.data     0.000227                       # mshr miss rate for ReadReq accesses (Ratio)
system.cpu.dcache.ReadReq.mshrMissRate::total     0.000227                       # mshr miss rate for ReadReq accesses (Ratio)
system.cpu.dcache.ReadReq.avgMshrMissLatency::cpu.data 57338.669951                       # average ReadReq mshr miss latency ((Tick/Count))
system.cpu.dcache.ReadReq.avgMshrMissLatency::total 57338.669951                       # average ReadReq mshr miss latency ((Tick/Count))
system.cpu.dcache.SoftPFReq.hits::cpu.data        13221                       # number of SoftPFReq hits (Count)
system.cpu.dcache.SoftPFReq.hits::total         13221                       # number of SoftPFReq hits (Count)
system.cpu.dcache.SoftPFReq.misses::cpu.data            3                       # number of SoftPFReq misses (Count)
system.cpu.dcache.SoftPFReq.misses::total            3                       # number of SoftPFReq misses (Count)
system.cpu.dcache.SoftPFReq.accesses::cpu.data        13224                       # number of SoftPFReq accesses(hits+misses) (Count)
system.cpu.dcache.SoftPFReq.accesses::total        13224                       # number of SoftPFReq accesses(hits+misses) (Count)
system.cpu.dcache.SoftPFReq.missRate::cpu.data     0.000227                       # miss rate for SoftPFReq accesses (Ratio)
system.cpu.dcache.SoftPFReq.missRate::total     0.000227                       # miss rate for SoftPFReq accesses (Ratio)
system.cpu.dcache.SoftPFReq.mshrMisses::cpu.data            3                       # number of SoftPFReq MSHR misses (Count)
system.cpu.dcache.SoftPFReq.mshrMisses::total            3                       # number of SoftPFReq MSHR misses (Count)
system.cpu.dcache.SoftPFReq.mshrMissLatency::cpu.data       232000                       # number of SoftPFReq MSHR miss ticks (Tick)
system.cpu.dcache.SoftPFReq.mshrMissLatency::total       232000                       # number of SoftPFReq MSHR miss ticks (Tick)
system.cpu.dcache.SoftPFReq.mshrMissRate::cpu.data     0.000227                       # mshr miss rate for SoftPFReq accesses (Ratio)
system.cpu.dcache.SoftPFReq.mshrMissRate::total     0.000227                       # mshr miss rate for SoftPFReq accesses (Ratio)
system.cpu.dcache.SoftPFReq.avgMshrMissLatency::cpu.data 77333.333333                       # average SoftPFReq mshr miss latency ((Tick/Count))
system.cpu.dcache.SoftPFReq.avgMshrMissLatency::total 77333.333333                       # average SoftPFReq mshr miss latency ((Tick/Count))
system.cpu.dcache.StoreCondReq.hits::cpu.data         4115                       # number of StoreCondReq hits (Count)
system.cpu.dcache.StoreCondReq.hits::total         4115                       # number of StoreCondReq hits (Count)
system.cpu.dcache.StoreCondReq.accesses::cpu.data         4115                       # number of StoreCondReq accesses(hits+misses) (Count)
system.cpu.dcache.StoreCondReq.accesses::total         4115                       # number of StoreCondReq accesses(hits+misses) (Count)
system.cpu.dcache.WriteLineReq.hits::cpu.data            7                       # number of WriteLineReq hits (Count)
system.cpu.dcache.WriteLineReq.hits::total            7                       # number of WriteLineReq hits (Count)
system.cpu.dcache.WriteLineReq.misses::cpu.data            8                       # number of WriteLineReq misses (Count)
system.cpu.dcache.WriteLineReq.misses::total            8                       # number of WriteLineReq misses (Count)
system.cpu.dcache.WriteLineReq.missLatency::cpu.data       251000                       # number of WriteLineReq miss ticks (Tick)
system.cpu.dcache.WriteLineReq.missLatency::total       251000                       # number of WriteLineReq miss ticks (Tick)
system.cpu.dcache.WriteLineReq.accesses::cpu.data           15                       # number of WriteLineReq accesses(hits+misses) (Count)
system.cpu.dcache.WriteLineReq.accesses::total           15                       # number of WriteLineReq accesses(hits+misses) (Count)
system.cpu.dcache.WriteLineReq.missRate::cpu.data     0.533333                       # miss rate for WriteLineReq accesses (Ratio)
system.cpu.dcache.WriteLineReq.missRate::total     0.533333                       # miss rate for WriteLineReq accesses (Ratio)
system.cpu.dcache.WriteLineReq.avgMissLatency::cpu.data        31375                       # average WriteLineReq miss latency ((Tick/Count))
system.cpu.dcache.WriteLineReq.avgMissLatency::total        31375                       # average WriteLineReq miss latency ((Tick/Count))
system.cpu.dcache.WriteLineReq.mshrMisses::cpu.data            8                       # number of WriteLineReq MSHR misses (Count)
system.cpu.dcache.WriteLineReq.mshrMisses::total            8                       # number of WriteLineReq MSHR misses (Count)
system.cpu.dcache.WriteLineReq.mshrMissLatency::cpu.data       243000                       # number of WriteLineReq MSHR miss ticks (Tick)
system.cpu.dcache.WriteLineReq.mshrMissLatency::total       243000                       # number of WriteLineReq MSHR miss ticks (Tick)
system.cpu.dcache.WriteLineReq.mshrMissRate::cpu.data     0.533333                       # mshr miss rate for WriteLineReq accesses (Ratio)
system.cpu.dcache.WriteLineReq.mshrMissRate::total     0.533333                       # mshr miss rate for WriteLineReq accesses (Ratio)
system.cpu.dcache.WriteLineReq.avgMshrMissLatency::cpu.data        30375                       # average WriteLineReq mshr miss latency ((Tick/Count))
system.cpu.dcache.WriteLineReq.avgMshrMissLatency::total        30375                       # average WriteLineReq mshr miss latency ((Tick/Count))
system.cpu.dcache.WriteReq.hits::cpu.data      1313883                       # number of WriteReq hits (Count)
system.cpu.dcache.WriteReq.hits::total        1313883                       # number of WriteReq hits (Count)
system.cpu.dcache.WriteReq.misses::cpu.data         4399                       # number of WriteReq misses (Count)
system.cpu.dcache.WriteReq.misses::total         4399                       # number of WriteReq misses (Count)
system.cpu.dcache.WriteReq.missLatency::cpu.data    378509500                       # number of WriteReq miss ticks (Tick)
system.cpu.dcache.WriteReq.missLatency::total    378509500                       # number of WriteReq miss ticks (Tick)
system.cpu.dcache.WriteReq.accesses::cpu.data      1318282                       # number of WriteReq accesses(hits+misses) (Count)
system.cpu.dcache.WriteReq.accesses::total      1318282                       # number of WriteReq accesses(hits+misses) (Count)
system.cpu.dcache.WriteReq.missRate::cpu.data     0.003337                       # miss rate for WriteReq accesses (Ratio)
system.cpu.dcache.WriteReq.missRate::total     0.003337                       # miss rate for WriteReq accesses (Ratio)
system.cpu.dcache.WriteReq.avgMissLatency::cpu.data 86044.441919                       # average WriteReq miss latency ((Tick/Count))
system.cpu.dcache.WriteReq.avgMissLatency::total 86044.441919                       # average WriteReq miss latency ((Tick/Count))
system.cpu.dcache.WriteReq.mshrHits::cpu.data         2181                       # number of WriteReq MSHR hits (Count)
system.cpu.dcache.WriteReq.mshrHits::total         2181                       # number of WriteReq MSHR hits (Count)
system.cpu.dcache.WriteReq.mshrMisses::cpu.data         2218                       # number of WriteReq MSHR misses (Count)
system.cpu.dcache.WriteReq.mshrMisses::total         2218                       # number of WriteReq MSHR misses (Count)
system.cpu.dcache.WriteReq.mshrMissLatency::cpu.data    190686000                       # number of WriteReq MSHR miss ticks (Tick)
system.cpu.dcache.WriteReq.mshrMissLatency::total    190686000                       # number of WriteReq MSHR miss ticks (Tick)
system.cpu.dcache.WriteReq.mshrMissRate::cpu.data     0.001682                       # mshr miss rate for WriteReq accesses (Ratio)
system.cpu.dcache.WriteReq.mshrMissRate::total     0.001682                       # mshr miss rate for WriteReq accesses (Ratio)
system.cpu.dcache.WriteReq.avgMshrMissLatency::cpu.data 85972.046889                       # average WriteReq mshr miss latency ((Tick/Count))
system.cpu.dcache.WriteReq.avgMshrMissLatency::total 85972.046889                       # average WriteReq mshr miss latency ((Tick/Count))
system.cpu.dcache.power_state.pwrStateResidencyTicks::UNDEFINED   9535100500                       # Cumulative time (in ticks) in various power states (Tick)
system.cpu.dcache.tags.tagsInUse           861.198026                       # Average ticks per tags in use ((Tick/Count))
system.cpu.dcache.tags.totalRefs              3124727                       # Total number of references to valid blocks. (Count)
system.cpu.dcache.tags.sampledRefs               2635                       # Sample count of references to valid blocks. (Count)
system.cpu.dcache.tags.avgRefs            1185.854649                       # Average number of references to valid blocks. ((Count/Count))
system.cpu.dcache.tags.warmupTick              176500                       # The tick when the warmup percentage was hit. (Tick)
system.cpu.dcache.tags.occupancies::cpu.data   861.198026                       # Average occupied blocks per tick, per requestor ((Count/Tick))
system.cpu.dcache.tags.avgOccs::cpu.data     0.841014                       # Average percentage of cache occupancy ((Ratio/Tick))
system.cpu.dcache.tags.avgOccs::total        0.841014                       # Average percentage of cache occupancy ((Ratio/Tick))
system.cpu.dcache.tags.occupanciesTaskId::1024         1024                       # Occupied blocks per task id (Count)
system.cpu.dcache.tags.ageTaskId_1024::0            3                       # Occupied blocks per task id, per block age (Count)
system.cpu.dcache.tags.ageTaskId_1024::1           20                       # Occupied blocks per task id, per block age (Count)
system.cpu.dcache.tags.ageTaskId_1024::2          190                       # Occupied blocks per task id, per block age (Count)
system.cpu.dcache.tags.ageTaskId_1024::3          811                       # Occupied blocks per task id, per block age (Count)
system.cpu.dcache.tags.ratioOccsTaskId::1024            1                       # Ratio of occupied blocks and all blocks, per task id (Ratio)
system.cpu.dcache.tags.tagAccesses            6256491                       # Number of tag accesses (Count)
system.cpu.dcache.tags.dataAccesses           6256491                       # Number of data accesses (Count)
system.cpu.dcache.tags.power_state.pwrStateResidencyTicks::UNDEFINED   9535100500                       # Cumulative time (in ticks) in various power states (Tick)
system.cpu.fetch2.intInstructions             5982453                       # Number of integer instructions successfully decoded (Count)
system.cpu.fetch2.fpInstructions                    0                       # Number of floating point instructions successfully decoded (Count)
system.cpu.fetch2.vecInstructions               28985                       # Number of SIMD instructions successfully decoded (Count)
system.cpu.fetch2.loadInstructions            1416640                       # Number of memory load instructions successfully decoded (Count)
system.cpu.fetch2.storeInstructions            702692                       # Number of memory store instructions successfully decoded (Count)
system.cpu.fetch2.amoInstructions                   0                       # Number of memory atomic instructions successfully decoded (Count)
system.cpu.icache.demandHits::cpu.inst        3146144                       # number of demand (read+write) hits (Count)
system.cpu.icache.demandHits::total           3146144                       # number of demand (read+write) hits (Count)
system.cpu.icache.overallHits::cpu.inst       3146144                       # number of overall hits (Count)
system.cpu.icache.overallHits::total          3146144                       # number of overall hits (Count)
system.cpu.icache.demandMisses::cpu.inst       272518                       # number of demand (read+write) misses (Count)
system.cpu.icache.demandMisses::total          272518                       # number of demand (read+write) misses (Count)
system.cpu.icache.overallMisses::cpu.inst       272518                       # number of overall misses (Count)
system.cpu.icache.overallMisses::total         272518                       # number of overall misses (Count)
system.cpu.icache.demandMissLatency::cpu.inst   3598667000                       # number of demand (read+write) miss ticks (Tick)
system.cpu.icache.demandMissLatency::total   3598667000                       # number of demand (read+write) miss ticks (Tick)
system.cpu.icache.overallMissLatency::cpu.inst   3598667000                       # number of overall miss ticks (Tick)
system.cpu.icache.overallMissLatency::total   3598667000                       # number of overall miss ticks (Tick)
system.cpu.icache.demandAccesses::cpu.inst      3418662                       # number of demand (read+write) accesses (Count)
system.cpu.icache.demandAccesses::total       3418662                       # number of demand (read+write) accesses (Count)
system.cpu.icache.overallAccesses::cpu.inst      3418662                       # number of overall (read+write) accesses (Count)
system.cpu.icache.overallAccesses::total      3418662                       # number of overall (read+write) accesses (Count)
system.cpu.icache.demandMissRate::cpu.inst     0.079715                       # miss rate for demand accesses (Ratio)
system.cpu.icache.demandMissRate::total      0.079715                       # miss rate for demand accesses (Ratio)
system.cpu.icache.overallMissRate::cpu.inst     0.079715                       # miss rate for overall accesses (Ratio)
system.cpu.icache.overallMissRate::total     0.079715                       # miss rate for overall accesses (Ratio)
system.cpu.icache.demandAvgMissLatency::cpu.inst 13205.245158                       # average overall miss latency in ticks ((Tick/Count))
system.cpu.icache.demandAvgMissLatency::total 13205.245158                       # average overall miss latency in ticks ((Tick/Count))
system.cpu.icache.overallAvgMissLatency::cpu.inst 13205.245158                       # average overall miss latency ((Tick/Count))
system.cpu.icache.overallAvgMissLatency::total 13205.245158                       # average overall miss latency ((Tick/Count))
system.cpu.icache.blockedCycles::no_mshrs            0                       # number of cycles access was blocked (Cycle)
system.cpu.icache.blockedCycles::no_targets            0                       # number of cycles access was blocked (Cycle)
system.cpu.icache.blockedCauses::no_mshrs            0                       # number of times access was blocked (Count)
system.cpu.icache.blockedCauses::no_targets            0                       # number of times access was blocked (Count)
system.cpu.icache.avgBlocked::no_mshrs            nan                       # average number of cycles each access was blocked ((Cycle/Count))
system.cpu.icache.avgBlocked::no_targets          nan                       # average number of cycles each access was blocked ((Cycle/Count))
system.cpu.icache.writebacks::writebacks       272262                       # number of writebacks (Count)
system.cpu.icache.writebacks::total            272262                       # number of writebacks (Count)
system.cpu.icache.demandMshrMisses::cpu.inst       272518                       # number of demand (read+write) MSHR misses (Count)
system.cpu.icache.demandMshrMisses::total       272518                       # number of demand (read+write) MSHR misses (Count)
system.cpu.icache.overallMshrMisses::cpu.inst       272518                       # number of overall MSHR misses (Count)
system.cpu.icache.overallMshrMisses::total       272518                       # number of overall MSHR misses (Count)
system.cpu.icache.demandMshrMissLatency::cpu.inst   3326149000                       # number of demand (read+write) MSHR miss ticks (Tick)
system.cpu.icache.demandMshrMissLatency::total   3326149000                       # number of demand (read+write) MSHR miss ticks (Tick)
system.cpu.icache.overallMshrMissLatency::cpu.inst   3326149000                       # number of overall MSHR miss ticks (Tick)
system.cpu.icache.overallMshrMissLatency::total   3326149000                       # number of overall MSHR miss ticks (Tick)
system.cpu.icache.demandMshrMissRate::cpu.inst     0.079715                       # mshr miss ratio for demand accesses (Ratio)
system.cpu.icache.demandMshrMissRate::total     0.079715                       # mshr miss ratio for demand accesses (Ratio)
system.cpu.icache.overallMshrMissRate::cpu.inst     0.079715                       # mshr miss ratio for overall accesses (Ratio)
system.cpu.icache.overallMshrMissRate::total     0.079715                       # mshr miss ratio for overall accesses (Ratio)
system.cpu.icache.demandAvgMshrMissLatency::cpu.inst 12205.245158                       # average overall mshr miss latency ((Tick/Count))
system.cpu.icache.demandAvgMshrMissLatency::total 12205.245158                       # average overall mshr miss latency ((Tick/Count))
system.cpu.icache.overallAvgMshrMissLatency::cpu.inst 12205.245158                       # average overall mshr miss latency ((Tick/Count))
system.cpu.icache.overallAvgMshrMissLatency::total 12205.245158                       # average overall mshr miss latency ((Tick/Count))
system.cpu.icache.replacements                 272262                       # number of replacements (Count)
system.cpu.icache.ReadReq.hits::cpu.inst      3146144                       # number of ReadReq hits (Count)
system.cpu.icache.ReadReq.hits::total         3146144                       # number of ReadReq hits (Count)
system.cpu.icache.ReadReq.misses::cpu.inst       272518                       # number of ReadReq misses (Count)
system.cpu.icache.ReadReq.misses::total        272518                       # number of ReadReq misses (Count)
system.cpu.icache.ReadReq.missLatency::cpu.inst   3598667000                       # number of ReadReq miss ticks (Tick)
system.cpu.icache.ReadReq.missLatency::total   3598667000                       # number of ReadReq miss ticks (Tick)
system.cpu.icache.ReadReq.accesses::cpu.inst      3418662                       # number of ReadReq accesses(hits+misses) (Count)
system.cpu.icache.ReadReq.accesses::total      3418662                       # number of ReadReq accesses(hits+misses) (Count)
system.cpu.icache.ReadReq.missRate::cpu.inst     0.079715                       # miss rate for ReadReq accesses (Ratio)
system.cpu.icache.ReadReq.missRate::total     0.079715                       # miss rate for ReadReq accesses (Ratio)
system.cpu.icache.ReadReq.avgMissLatency::cpu.inst 13205.245158                       # average ReadReq miss latency ((Tick/Count))
system.cpu.icache.ReadReq.avgMissLatency::total 13205.245158                       # average ReadReq miss latency ((Tick/Count))
system.cpu.icache.ReadReq.mshrMisses::cpu.inst       272518                       # number of ReadReq MSHR misses (Count)
system.cpu.icache.ReadReq.mshrMisses::total       272518                       # number of ReadReq MSHR misses (Count)
system.cpu.icache.ReadReq.mshrMissLatency::cpu.inst   3326149000                       # number of ReadReq MSHR miss ticks (Tick)
system.cpu.icache.ReadReq.mshrMissLatency::total   3326149000                       # number of ReadReq MSHR miss ticks (Tick)
system.cpu.icache.ReadReq.mshrMissRate::cpu.inst     0.079715                       # mshr miss rate for ReadReq accesses (Ratio)
system.cpu.icache.ReadReq.mshrMissRate::total     0.079715                       # mshr miss rate for ReadReq accesses (Ratio)
system.cpu.icache.ReadReq.avgMshrMissLatency::cpu.inst 12205.245158                       # average ReadReq mshr miss latency ((Tick/Count))
system.cpu.icache.ReadReq.avgMshrMissLatency::total 12205.245158                       # average ReadReq mshr miss latency ((Tick/Count))
system.cpu.icache.power_state.pwrStateResidencyTicks::UNDEFINED   9535100500                       # Cumulative time (in ticks) in various power states (Tick)
system.cpu.icache.tags.tagsInUse           255.519886                       # Average ticks per tags in use ((Tick/Count))
system.cpu.icache.tags.totalRefs              3418662                       # Total number of references to valid blocks. (Count)
system.cpu.icache.tags.sampledRefs             272518                       # Sample count of references to valid blocks. (Count)
system.cpu.icache.tags.avgRefs              12.544720                       # Average number of references to valid blocks. ((Count/Count))
system.cpu.icache.tags.warmupTick               87500                       # The tick when the warmup percentage was hit. (Tick)
system.cpu.icache.tags.occupancies::cpu.inst   255.519886                       # Average occupied blocks per tick, per requestor ((Count/Tick))
system.cpu.icache.tags.avgOccs::cpu.inst     0.998125                       # Average percentage of cache occupancy ((Ratio/Tick))
system.cpu.icache.tags.avgOccs::total        0.998125                       # Average percentage of cache occupancy ((Ratio/Tick))
system.cpu.icache.tags.occupanciesTaskId::1024          256                       # Occupied blocks per task id (Count)
system.cpu.icache.tags.ageTaskId_1024::0           46                       # Occupied blocks per task id, per block age (Count)
system.cpu.icache.tags.ageTaskId_1024::1           14                       # Occupied blocks per task id, per block age (Count)
system.cpu.icache.tags.ageTaskId_1024::2           24                       # Occupied blocks per task id, per block age (Count)
system.cpu.icache.tags.ageTaskId_1024::3          172                       # Occupied blocks per task id, per block age (Count)
system.cpu.icache.tags.ratioOccsTaskId::1024            1                       # Ratio of occupied blocks and all blocks, per task id (Ratio)
system.cpu.icache.tags.tagAccesses            7109842                       # Number of tag accesses (Count)
system.cpu.icache.tags.dataAccesses           7109842                       # Number of data accesses (Count)
system.cpu.icache.tags.power_state.pwrStateResidencyTicks::UNDEFINED   9535100500                       # Cumulative time (in ticks) in various power states (Tick)
system.cpu.loadValuePred.lvpuLookups          2833280                       # Number of LVPT lookups (Count)
system.cpu.loadValuePred.predictedIncorrect      1800500                       # Number of incorrect predictions (Count)
system.cpu.mmu.alignFaults                          0                       # Number of MMU faults due to alignment restrictions (Count)
system.cpu.mmu.prefetchFaults                       0                       # Number of MMU faults due to prefetch (Count)
system.cpu.mmu.domainFaults                         0                       # Number of MMU faults due to domain restrictions (Count)
system.cpu.mmu.permsFaults                          0                       # Number of MMU faults due to permissions restrictions (Count)
system.cpu.mmu.dtb.readHits                         0                       # Read hits (Count)
system.cpu.mmu.dtb.readMisses                       0                       # Read misses (Count)
system.cpu.mmu.dtb.writeHits                        0                       # Write hits (Count)
system.cpu.mmu.dtb.writeMisses                      0                       # Write misses (Count)
system.cpu.mmu.dtb.inserts                          0                       # Number of times an entry is inserted into the TLB (Count)
system.cpu.mmu.dtb.flushTlb                         0                       # Number of times complete TLB was flushed (Count)
system.cpu.mmu.dtb.flushTlbMva                      0                       # Number of times TLB was flushed by MVA (Count)
system.cpu.mmu.dtb.flushTlbMvaAsid                  0                       # Number of times TLB was flushed by MVA & ASID (Count)
system.cpu.mmu.dtb.flushTlbAsid                     0                       # Number of times TLB was flushed by ASID (Count)
system.cpu.mmu.dtb.flushedEntries                   0                       # Number of entries that have been flushed from TLB (Count)
system.cpu.mmu.dtb.readAccesses                     0                       # Read accesses (Count)
system.cpu.mmu.dtb.writeAccesses                    0                       # Write accesses (Count)
system.cpu.mmu.dtb.hits                             0                       # Total TLB (inst and data) hits (Count)
system.cpu.mmu.dtb.misses                           0                       # Total TLB (inst and data) misses (Count)
system.cpu.mmu.dtb.accesses                         0                       # Total TLB (inst and data) accesses (Count)
system.cpu.mmu.dtb_walker.walks                     0                       # Table walker walks requested (Count)
system.cpu.mmu.dtb_walker.requestOrigin_Requested::Data            0                       # Table walker requests started/completed, data/inst (Count)
system.cpu.mmu.dtb_walker.requestOrigin_Requested::Inst            0                       # Table walker requests started/completed, data/inst (Count)
system.cpu.mmu.dtb_walker.requestOrigin_Requested::total            0                       # Table walker requests started/completed, data/inst (Count)
system.cpu.mmu.dtb_walker.requestOrigin_Completed::Data            0                       # Table walker requests started/completed, data/inst (Count)
system.cpu.mmu.dtb_walker.requestOrigin_Completed::Inst            0                       # Table walker requests started/completed, data/inst (Count)
system.cpu.mmu.dtb_walker.requestOrigin_Completed::total            0                       # Table walker requests started/completed, data/inst (Count)
system.cpu.mmu.dtb_walker.requestOrigin::total            0                       # Table walker requests started/completed, data/inst (Count)
system.cpu.mmu.dtb_walker.power_state.pwrStateResidencyTicks::UNDEFINED   9535100500                       # Cumulative time (in ticks) in various power states (Tick)
system.cpu.mmu.itb.instHits                         0                       # Inst hits (Count)
system.cpu.mmu.itb.instMisses                       0                       # Inst misses (Count)
system.cpu.mmu.itb.inserts                          0                       # Number of times an entry is inserted into the TLB (Count)
system.cpu.mmu.itb.flushTlb                         0                       # Number of times complete TLB was flushed (Count)
system.cpu.mmu.itb.flushTlbMva                      0                       # Number of times TLB was flushed by MVA (Count)
system.cpu.mmu.itb.flushTlbMvaAsid                  0                       # Number of times TLB was flushed by MVA & ASID (Count)
system.cpu.mmu.itb.flushTlbAsid                     0                       # Number of times TLB was flushed by ASID (Count)
system.cpu.mmu.itb.flushedEntries                   0                       # Number of entries that have been flushed from TLB (Count)
system.cpu.mmu.itb.instAccesses                     0                       # Inst accesses (Count)
system.cpu.mmu.itb.hits                             0                       # Total TLB (inst and data) hits (Count)
system.cpu.mmu.itb.misses                           0                       # Total TLB (inst and data) misses (Count)
system.cpu.mmu.itb.accesses                         0                       # Total TLB (inst and data) accesses (Count)
system.cpu.mmu.itb_walker.walks                     0                       # Table walker walks requested (Count)
system.cpu.mmu.itb_walker.requestOrigin_Requested::Data            0                       # Table walker requests started/completed, data/inst (Count)
system.cpu.mmu.itb_walker.requestOrigin_Requested::Inst            0                       # Table walker requests started/completed, data/inst (Count)
system.cpu.mmu.itb_walker.requestOrigin_Requested::total            0                       # Table walker requests started/completed, data/inst (Count)
system.cpu.mmu.itb_walker.requestOrigin_Completed::Data            0                       # Table walker requests started/completed, data/inst (Count)
system.cpu.mmu.itb_walker.requestOrigin_Completed::Inst            0                       # Table walker requests started/completed, data/inst (Count)
system.cpu.mmu.itb_walker.requestOrigin_Completed::total            0                       # Table walker requests started/completed, data/inst (Count)
system.cpu.mmu.itb_walker.requestOrigin::total            0                       # Table walker requests started/completed, data/inst (Count)
system.cpu.mmu.itb_walker.power_state.pwrStateResidencyTicks::UNDEFINED   9535100500                       # Cumulative time (in ticks) in various power states (Tick)
system.cpu.mmu.l2_shared.instHits                   0                       # Inst hits (Count)
system.cpu.mmu.l2_shared.instMisses                 0                       # Inst misses (Count)
system.cpu.mmu.l2_shared.inserts                    0                       # Number of times an entry is inserted into the TLB (Count)
system.cpu.mmu.l2_shared.flushTlb                   0                       # Number of times complete TLB was flushed (Count)
system.cpu.mmu.l2_shared.flushTlbMva                0                       # Number of times TLB was flushed by MVA (Count)
system.cpu.mmu.l2_shared.flushTlbMvaAsid            0                       # Number of times TLB was flushed by MVA & ASID (Count)
system.cpu.mmu.l2_shared.flushTlbAsid               0                       # Number of times TLB was flushed by ASID (Count)
system.cpu.mmu.l2_shared.flushedEntries             0                       # Number of entries that have been flushed from TLB (Count)
system.cpu.mmu.l2_shared.instAccesses               0                       # Inst accesses (Count)
system.cpu.mmu.l2_shared.hits                       0                       # Total TLB (inst and data) hits (Count)
system.cpu.mmu.l2_shared.misses                     0                       # Total TLB (inst and data) misses (Count)
system.cpu.mmu.l2_shared.accesses                   0                       # Total TLB (inst and data) accesses (Count)
system.cpu.mmu.stage2_dtb.readHits                  0                       # Read hits (Count)
system.cpu.mmu.stage2_dtb.readMisses                0                       # Read misses (Count)
system.cpu.mmu.stage2_dtb.writeHits                 0                       # Write hits (Count)
system.cpu.mmu.stage2_dtb.writeMisses               0                       # Write misses (Count)
system.cpu.mmu.stage2_dtb.inserts                   0                       # Number of times an entry is inserted into the TLB (Count)
system.cpu.mmu.stage2_dtb.flushTlb                  0                       # Number of times complete TLB was flushed (Count)
system.cpu.mmu.stage2_dtb.flushTlbMva               0                       # Number of times TLB was flushed by MVA (Count)
system.cpu.mmu.stage2_dtb.flushTlbMvaAsid            0                       # Number of times TLB was flushed by MVA & ASID (Count)
system.cpu.mmu.stage2_dtb.flushTlbAsid              0                       # Number of times TLB was flushed by ASID (Count)
system.cpu.mmu.stage2_dtb.flushedEntries            0                       # Number of entries that have been flushed from TLB (Count)
system.cpu.mmu.stage2_dtb.readAccesses              0                       # Read accesses (Count)
system.cpu.mmu.stage2_dtb.writeAccesses             0                       # Write accesses (Count)
system.cpu.mmu.stage2_dtb.hits                      0                       # Total TLB (inst and data) hits (Count)
system.cpu.mmu.stage2_dtb.misses                    0                       # Total TLB (inst and data) misses (Count)
system.cpu.mmu.stage2_dtb.accesses                  0                       # Total TLB (inst and data) accesses (Count)
system.cpu.mmu.stage2_dtb_walker.walks              0                       # Table walker walks requested (Count)
system.cpu.mmu.stage2_dtb_walker.requestOrigin_Requested::Data            0                       # Table walker requests started/completed, data/inst (Count)
system.cpu.mmu.stage2_dtb_walker.requestOrigin_Requested::Inst            0                       # Table walker requests started/completed, data/inst (Count)
system.cpu.mmu.stage2_dtb_walker.requestOrigin_Requested::total            0                       # Table walker requests started/completed, data/inst (Count)
system.cpu.mmu.stage2_dtb_walker.requestOrigin_Completed::Data            0                       # Table walker requests started/completed, data/inst (Count)
system.cpu.mmu.stage2_dtb_walker.requestOrigin_Completed::Inst            0                       # Table walker requests started/completed, data/inst (Count)
system.cpu.mmu.stage2_dtb_walker.requestOrigin_Completed::total            0                       # Table walker requests started/completed, data/inst (Count)
system.cpu.mmu.stage2_dtb_walker.requestOrigin::total            0                       # Table walker requests started/completed, data/inst (Count)
system.cpu.mmu.stage2_dtb_walker.power_state.pwrStateResidencyTicks::UNDEFINED   9535100500                       # Cumulative time (in ticks) in various power states (Tick)
system.cpu.mmu.stage2_itb.instHits                  0                       # Inst hits (Count)
system.cpu.mmu.stage2_itb.instMisses                0                       # Inst misses (Count)
system.cpu.mmu.stage2_itb.inserts                   0                       # Number of times an entry is inserted into the TLB (Count)
system.cpu.mmu.stage2_itb.flushTlb                  0                       # Number of times complete TLB was flushed (Count)
system.cpu.mmu.stage2_itb.flushTlbMva               0                       # Number of times TLB was flushed by MVA (Count)
system.cpu.mmu.stage2_itb.flushTlbMvaAsid            0                       # Number of times TLB was flushed by MVA & ASID (Count)
system.cpu.mmu.stage2_itb.flushTlbAsid              0                       # Number of times TLB was flushed by ASID (Count)
system.cpu.mmu.stage2_itb.flushedEntries            0                       # Number of entries that have been flushed from TLB (Count)
system.cpu.mmu.stage2_itb.instAccesses              0                       # Inst accesses (Count)
system.cpu.mmu.stage2_itb.hits                      0                       # Total TLB (inst and data) hits (Count)
system.cpu.mmu.stage2_itb.misses                    0                       # Total TLB (inst and data) misses (Count)
system.cpu.mmu.stage2_itb.accesses                  0                       # Total TLB (inst and data) accesses (Count)
system.cpu.mmu.stage2_itb_walker.walks              0                       # Table walker walks requested (Count)
system.cpu.mmu.stage2_itb_walker.requestOrigin_Requested::Data            0                       # Table walker requests started/completed, data/inst (Count)
system.cpu.mmu.stage2_itb_walker.requestOrigin_Requested::Inst            0                       # Table walker requests started/completed, data/inst (Count)
system.cpu.mmu.stage2_itb_walker.requestOrigin_Requested::total            0                       # Table walker requests started/completed, data/inst (Count)
system.cpu.mmu.stage2_itb_walker.requestOrigin_Completed::Data            0                       # Table walker requests started/completed, data/inst (Count)
system.cpu.mmu.stage2_itb_walker.requestOrigin_Completed::Inst            0                       # Table walker requests started/completed, data/inst (Count)
system.cpu.mmu.stage2_itb_walker.requestOrigin_Completed::total            0                       # Table walker requests started/completed, data/inst (Count)
system.cpu.mmu.stage2_itb_walker.requestOrigin::total            0                       # Table walker requests started/completed, data/inst (Count)
system.cpu.mmu.stage2_itb_walker.power_state.pwrStateResidencyTicks::UNDEFINED   9535100500                       # Cumulative time (in ticks) in various power states (Tick)
system.cpu.power_state.pwrStateResidencyTicks::ON   9535100500                       # Cumulative time (in ticks) in various power states (Tick)
system.cpu.thread_0.numInsts                 10000000                       # Number of Instructions committed (Count)
system.cpu.thread_0.numOps                   11078096                       # Number of Ops committed (Count)
system.cpu.thread_0.numMemRefs                      0                       # Number of Memory References (Count)
system.cpu.workload.numSyscalls                    18                       # Number of system calls (Count)
system.cpu_clk_domain.clock                       500                       # Clock period in ticks (Tick)
system.cpu_voltage_domain.voltage                   1                       # Voltage in Volts (Volt)
system.l2.demandHits::cpu.inst                 271660                       # number of demand (read+write) hits (Count)
system.l2.demandHits::cpu.data                    195                       # number of demand (read+write) hits (Count)
system.l2.demandHits::total                    271855                       # number of demand (read+write) hits (Count)
system.l2.overallHits::cpu.inst                271660                       # number of overall hits (Count)
system.l2.overallHits::cpu.data                   195                       # number of overall hits (Count)
system.l2.overallHits::total                   271855                       # number of overall hits (Count)
system.l2.demandMisses::cpu.inst                  858                       # number of demand (read+write) misses (Count)
system.l2.demandMisses::cpu.data                 2432                       # number of demand (read+write) misses (Count)
system.l2.demandMisses::total                    3290                       # number of demand (read+write) misses (Count)
system.l2.overallMisses::cpu.inst                 858                       # number of overall misses (Count)
system.l2.overallMisses::cpu.data                2432                       # number of overall misses (Count)
system.l2.overallMisses::total                   3290                       # number of overall misses (Count)
system.l2.demandMissLatency::cpu.inst        64931500                       # number of demand (read+write) miss ticks (Tick)
system.l2.demandMissLatency::cpu.data       208206000                       # number of demand (read+write) miss ticks (Tick)
system.l2.demandMissLatency::total          273137500                       # number of demand (read+write) miss ticks (Tick)
system.l2.overallMissLatency::cpu.inst       64931500                       # number of overall miss ticks (Tick)
system.l2.overallMissLatency::cpu.data      208206000                       # number of overall miss ticks (Tick)
system.l2.overallMissLatency::total         273137500                       # number of overall miss ticks (Tick)
system.l2.demandAccesses::cpu.inst             272518                       # number of demand (read+write) accesses (Count)
system.l2.demandAccesses::cpu.data               2627                       # number of demand (read+write) accesses (Count)
system.l2.demandAccesses::total                275145                       # number of demand (read+write) accesses (Count)
system.l2.overallAccesses::cpu.inst            272518                       # number of overall (read+write) accesses (Count)
system.l2.overallAccesses::cpu.data              2627                       # number of overall (read+write) accesses (Count)
system.l2.overallAccesses::total               275145                       # number of overall (read+write) accesses (Count)
system.l2.demandMissRate::cpu.inst           0.003148                       # miss rate for demand accesses (Ratio)
system.l2.demandMissRate::cpu.data           0.925771                       # miss rate for demand accesses (Ratio)
system.l2.demandMissRate::total              0.011957                       # miss rate for demand accesses (Ratio)
system.l2.overallMissRate::cpu.inst          0.003148                       # miss rate for overall accesses (Ratio)
system.l2.overallMissRate::cpu.data          0.925771                       # miss rate for overall accesses (Ratio)
system.l2.overallMissRate::total             0.011957                       # miss rate for overall accesses (Ratio)
system.l2.demandAvgMissLatency::cpu.inst 75677.738928                       # average overall miss latency in ticks ((Tick/Count))
system.l2.demandAvgMissLatency::cpu.data 85611.019737                       # average overall miss latency in ticks ((Tick/Count))
system.l2.demandAvgMissLatency::total    83020.516717                       # average overall miss latency in ticks ((Tick/Count))
system.l2.overallAvgMissLatency::cpu.inst 75677.738928                       # average overall miss latency ((Tick/Count))
system.l2.overallAvgMissLatency::cpu.data 85611.019737                       # average overall miss latency ((Tick/Count))
system.l2.overallAvgMissLatency::total   83020.516717                       # average overall miss latency ((Tick/Count))
system.l2.blockedCycles::no_mshrs                   0                       # number of cycles access was blocked (Cycle)
system.l2.blockedCycles::no_targets                 0                       # number of cycles access was blocked (Cycle)
system.l2.blockedCauses::no_mshrs                   0                       # number of times access was blocked (Count)
system.l2.blockedCauses::no_targets                 0                       # number of times access was blocked (Count)
system.l2.avgBlocked::no_mshrs                    nan                       # average number of cycles each access was blocked ((Cycle/Count))
system.l2.avgBlocked::no_targets                  nan                       # average number of cycles each access was blocked ((Cycle/Count))
system.l2.demandMshrMisses::cpu.inst              858                       # number of demand (read+write) MSHR misses (Count)
system.l2.demandMshrMisses::cpu.data             2432                       # number of demand (read+write) MSHR misses (Count)
system.l2.demandMshrMisses::total                3290                       # number of demand (read+write) MSHR misses (Count)
system.l2.overallMshrMisses::cpu.inst             858                       # number of overall MSHR misses (Count)
system.l2.overallMshrMisses::cpu.data            2432                       # number of overall MSHR misses (Count)
system.l2.overallMshrMisses::total               3290                       # number of overall MSHR misses (Count)
system.l2.demandMshrMissLatency::cpu.inst     56351500                       # number of demand (read+write) MSHR miss ticks (Tick)
system.l2.demandMshrMissLatency::cpu.data    183886000                       # number of demand (read+write) MSHR miss ticks (Tick)
system.l2.demandMshrMissLatency::total      240237500                       # number of demand (read+write) MSHR miss ticks (Tick)
system.l2.overallMshrMissLatency::cpu.inst     56351500                       # number of overall MSHR miss ticks (Tick)
system.l2.overallMshrMissLatency::cpu.data    183886000                       # number of overall MSHR miss ticks (Tick)
system.l2.overallMshrMissLatency::total     240237500                       # number of overall MSHR miss ticks (Tick)
system.l2.demandMshrMissRate::cpu.inst       0.003148                       # mshr miss ratio for demand accesses (Ratio)
system.l2.demandMshrMissRate::cpu.data       0.925771                       # mshr miss ratio for demand accesses (Ratio)
system.l2.demandMshrMissRate::total          0.011957                       # mshr miss ratio for demand accesses (Ratio)
system.l2.overallMshrMissRate::cpu.inst      0.003148                       # mshr miss ratio for overall accesses (Ratio)
system.l2.overallMshrMissRate::cpu.data      0.925771                       # mshr miss ratio for overall accesses (Ratio)
system.l2.overallMshrMissRate::total         0.011957                       # mshr miss ratio for overall accesses (Ratio)
system.l2.demandAvgMshrMissLatency::cpu.inst 65677.738928                       # average overall mshr miss latency ((Tick/Count))
system.l2.demandAvgMshrMissLatency::cpu.data 75611.019737                       # average overall mshr miss latency ((Tick/Count))
system.l2.demandAvgMshrMissLatency::total 73020.516717                       # average overall mshr miss latency ((Tick/Count))
system.l2.overallAvgMshrMissLatency::cpu.inst 65677.738928                       # average overall mshr miss latency ((Tick/Count))
system.l2.overallAvgMshrMissLatency::cpu.data 75611.019737                       # average overall mshr miss latency ((Tick/Count))
system.l2.overallAvgMshrMissLatency::total 73020.516717                       # average overall mshr miss latency ((Tick/Count))
system.l2.replacements                              0                       # number of replacements (Count)
system.l2.InvalidateReq.misses::cpu.data            8                       # number of InvalidateReq misses (Count)
system.l2.InvalidateReq.misses::total               8                       # number of InvalidateReq misses (Count)
system.l2.InvalidateReq.accesses::cpu.data            8                       # number of InvalidateReq accesses(hits+misses) (Count)
system.l2.InvalidateReq.accesses::total             8                       # number of InvalidateReq accesses(hits+misses) (Count)
system.l2.InvalidateReq.missRate::cpu.data            1                       # miss rate for InvalidateReq accesses (Ratio)
system.l2.InvalidateReq.missRate::total             1                       # miss rate for InvalidateReq accesses (Ratio)
system.l2.InvalidateReq.mshrMisses::cpu.data            8                       # number of InvalidateReq MSHR misses (Count)
system.l2.InvalidateReq.mshrMisses::total            8                       # number of InvalidateReq MSHR misses (Count)
system.l2.InvalidateReq.mshrMissLatency::cpu.data       151000                       # number of InvalidateReq MSHR miss ticks (Tick)
system.l2.InvalidateReq.mshrMissLatency::total       151000                       # number of InvalidateReq MSHR miss ticks (Tick)
system.l2.InvalidateReq.mshrMissRate::cpu.data            1                       # mshr miss rate for InvalidateReq accesses (Ratio)
system.l2.InvalidateReq.mshrMissRate::total            1                       # mshr miss rate for InvalidateReq accesses (Ratio)
system.l2.InvalidateReq.avgMshrMissLatency::cpu.data        18875                       # average InvalidateReq mshr miss latency ((Tick/Count))
system.l2.InvalidateReq.avgMshrMissLatency::total        18875                       # average InvalidateReq mshr miss latency ((Tick/Count))
system.l2.ReadCleanReq.hits::cpu.inst          271660                       # number of ReadCleanReq hits (Count)
system.l2.ReadCleanReq.hits::total             271660                       # number of ReadCleanReq hits (Count)
system.l2.ReadCleanReq.misses::cpu.inst           858                       # number of ReadCleanReq misses (Count)
system.l2.ReadCleanReq.misses::total              858                       # number of ReadCleanReq misses (Count)
system.l2.ReadCleanReq.missLatency::cpu.inst     64931500                       # number of ReadCleanReq miss ticks (Tick)
system.l2.ReadCleanReq.missLatency::total     64931500                       # number of ReadCleanReq miss ticks (Tick)
system.l2.ReadCleanReq.accesses::cpu.inst       272518                       # number of ReadCleanReq accesses(hits+misses) (Count)
system.l2.ReadCleanReq.accesses::total         272518                       # number of ReadCleanReq accesses(hits+misses) (Count)
system.l2.ReadCleanReq.missRate::cpu.inst     0.003148                       # miss rate for ReadCleanReq accesses (Ratio)
system.l2.ReadCleanReq.missRate::total       0.003148                       # miss rate for ReadCleanReq accesses (Ratio)
system.l2.ReadCleanReq.avgMissLatency::cpu.inst 75677.738928                       # average ReadCleanReq miss latency ((Tick/Count))
system.l2.ReadCleanReq.avgMissLatency::total 75677.738928                       # average ReadCleanReq miss latency ((Tick/Count))
system.l2.ReadCleanReq.mshrMisses::cpu.inst          858                       # number of ReadCleanReq MSHR misses (Count)
system.l2.ReadCleanReq.mshrMisses::total          858                       # number of ReadCleanReq MSHR misses (Count)
system.l2.ReadCleanReq.mshrMissLatency::cpu.inst     56351500                       # number of ReadCleanReq MSHR miss ticks (Tick)
system.l2.ReadCleanReq.mshrMissLatency::total     56351500                       # number of ReadCleanReq MSHR miss ticks (Tick)
system.l2.ReadCleanReq.mshrMissRate::cpu.inst     0.003148                       # mshr miss rate for ReadCleanReq accesses (Ratio)
system.l2.ReadCleanReq.mshrMissRate::total     0.003148                       # mshr miss rate for ReadCleanReq accesses (Ratio)
system.l2.ReadCleanReq.avgMshrMissLatency::cpu.inst 65677.738928                       # average ReadCleanReq mshr miss latency ((Tick/Count))
system.l2.ReadCleanReq.avgMshrMissLatency::total 65677.738928                       # average ReadCleanReq mshr miss latency ((Tick/Count))
system.l2.ReadExReq.hits::cpu.data                 37                       # number of ReadExReq hits (Count)
system.l2.ReadExReq.hits::total                    37                       # number of ReadExReq hits (Count)
system.l2.ReadExReq.misses::cpu.data             2181                       # number of ReadExReq misses (Count)
system.l2.ReadExReq.misses::total                2181                       # number of ReadExReq misses (Count)
system.l2.ReadExReq.missLatency::cpu.data    186970000                       # number of ReadExReq miss ticks (Tick)
system.l2.ReadExReq.missLatency::total      186970000                       # number of ReadExReq miss ticks (Tick)
system.l2.ReadExReq.accesses::cpu.data           2218                       # number of ReadExReq accesses(hits+misses) (Count)
system.l2.ReadExReq.accesses::total              2218                       # number of ReadExReq accesses(hits+misses) (Count)
system.l2.ReadExReq.missRate::cpu.data       0.983318                       # miss rate for ReadExReq accesses (Ratio)
system.l2.ReadExReq.missRate::total          0.983318                       # miss rate for ReadExReq accesses (Ratio)
system.l2.ReadExReq.avgMissLatency::cpu.data 85726.730857                       # average ReadExReq miss latency ((Tick/Count))
system.l2.ReadExReq.avgMissLatency::total 85726.730857                       # average ReadExReq miss latency ((Tick/Count))
system.l2.ReadExReq.mshrMisses::cpu.data         2181                       # number of ReadExReq MSHR misses (Count)
system.l2.ReadExReq.mshrMisses::total            2181                       # number of ReadExReq MSHR misses (Count)
system.l2.ReadExReq.mshrMissLatency::cpu.data    165160000                       # number of ReadExReq MSHR miss ticks (Tick)
system.l2.ReadExReq.mshrMissLatency::total    165160000                       # number of ReadExReq MSHR miss ticks (Tick)
system.l2.ReadExReq.mshrMissRate::cpu.data     0.983318                       # mshr miss rate for ReadExReq accesses (Ratio)
system.l2.ReadExReq.mshrMissRate::total      0.983318                       # mshr miss rate for ReadExReq accesses (Ratio)
system.l2.ReadExReq.avgMshrMissLatency::cpu.data 75726.730857                       # average ReadExReq mshr miss latency ((Tick/Count))
system.l2.ReadExReq.avgMshrMissLatency::total 75726.730857                       # average ReadExReq mshr miss latency ((Tick/Count))
system.l2.ReadSharedReq.hits::cpu.data            158                       # number of ReadSharedReq hits (Count)
system.l2.ReadSharedReq.hits::total               158                       # number of ReadSharedReq hits (Count)
system.l2.ReadSharedReq.misses::cpu.data          251                       # number of ReadSharedReq misses (Count)
system.l2.ReadSharedReq.misses::total             251                       # number of ReadSharedReq misses (Count)
system.l2.ReadSharedReq.missLatency::cpu.data     21236000                       # number of ReadSharedReq miss ticks (Tick)
system.l2.ReadSharedReq.missLatency::total     21236000                       # number of ReadSharedReq miss ticks (Tick)
system.l2.ReadSharedReq.accesses::cpu.data          409                       # number of ReadSharedReq accesses(hits+misses) (Count)
system.l2.ReadSharedReq.accesses::total           409                       # number of ReadSharedReq accesses(hits+misses) (Count)
system.l2.ReadSharedReq.missRate::cpu.data     0.613692                       # miss rate for ReadSharedReq accesses (Ratio)
system.l2.ReadSharedReq.missRate::total      0.613692                       # miss rate for ReadSharedReq accesses (Ratio)
system.l2.ReadSharedReq.avgMissLatency::cpu.data 84605.577689                       # average ReadSharedReq miss latency ((Tick/Count))
system.l2.ReadSharedReq.avgMissLatency::total 84605.577689                       # average ReadSharedReq miss latency ((Tick/Count))
system.l2.ReadSharedReq.mshrMisses::cpu.data          251                       # number of ReadSharedReq MSHR misses (Count)
system.l2.ReadSharedReq.mshrMisses::total          251                       # number of ReadSharedReq MSHR misses (Count)
system.l2.ReadSharedReq.mshrMissLatency::cpu.data     18726000                       # number of ReadSharedReq MSHR miss ticks (Tick)
system.l2.ReadSharedReq.mshrMissLatency::total     18726000                       # number of ReadSharedReq MSHR miss ticks (Tick)
system.l2.ReadSharedReq.mshrMissRate::cpu.data     0.613692                       # mshr miss rate for ReadSharedReq accesses (Ratio)
system.l2.ReadSharedReq.mshrMissRate::total     0.613692                       # mshr miss rate for ReadSharedReq accesses (Ratio)
system.l2.ReadSharedReq.avgMshrMissLatency::cpu.data 74605.577689                       # average ReadSharedReq mshr miss latency ((Tick/Count))
system.l2.ReadSharedReq.avgMshrMissLatency::total 74605.577689                       # average ReadSharedReq mshr miss latency ((Tick/Count))
system.l2.WritebackClean.hits::writebacks       272261                       # number of WritebackClean hits (Count)
system.l2.WritebackClean.hits::total           272261                       # number of WritebackClean hits (Count)
system.l2.WritebackClean.accesses::writebacks       272261                       # number of WritebackClean accesses(hits+misses) (Count)
system.l2.WritebackClean.accesses::total       272261                       # number of WritebackClean accesses(hits+misses) (Count)
system.l2.WritebackDirty.hits::writebacks         1370                       # number of WritebackDirty hits (Count)
system.l2.WritebackDirty.hits::total             1370                       # number of WritebackDirty hits (Count)
system.l2.WritebackDirty.accesses::writebacks         1370                       # number of WritebackDirty accesses(hits+misses) (Count)
system.l2.WritebackDirty.accesses::total         1370                       # number of WritebackDirty accesses(hits+misses) (Count)
system.l2.power_state.pwrStateResidencyTicks::UNDEFINED   9535100500                       # Cumulative time (in ticks) in various power states (Tick)
system.l2.tags.tagsInUse                  2271.458963                       # Average ticks per tags in use ((Tick/Count))
system.l2.tags.totalRefs                       549017                       # Total number of references to valid blocks. (Count)
system.l2.tags.sampledRefs                       3298                       # Sample count of references to valid blocks. (Count)
system.l2.tags.avgRefs                     166.469679                       # Average number of references to valid blocks. ((Count/Count))
system.l2.tags.warmupTick                       77000                       # The tick when the warmup percentage was hit. (Tick)
system.l2.tags.occupancies::writebacks       4.132553                       # Average occupied blocks per tick, per requestor ((Count/Tick))
system.l2.tags.occupancies::cpu.inst       851.713993                       # Average occupied blocks per tick, per requestor ((Count/Tick))
system.l2.tags.occupancies::cpu.data      1415.612417                       # Average occupied blocks per tick, per requestor ((Count/Tick))
system.l2.tags.avgOccs::writebacks           0.000126                       # Average percentage of cache occupancy ((Ratio/Tick))
system.l2.tags.avgOccs::cpu.inst             0.025992                       # Average percentage of cache occupancy ((Ratio/Tick))
system.l2.tags.avgOccs::cpu.data             0.043201                       # Average percentage of cache occupancy ((Ratio/Tick))
system.l2.tags.avgOccs::total                0.069319                       # Average percentage of cache occupancy ((Ratio/Tick))
system.l2.tags.occupanciesTaskId::1024           3298                       # Occupied blocks per task id (Count)
system.l2.tags.ageTaskId_1024::0                    2                       # Occupied blocks per task id, per block age (Count)
system.l2.tags.ageTaskId_1024::1                   21                       # Occupied blocks per task id, per block age (Count)
system.l2.tags.ageTaskId_1024::2                  186                       # Occupied blocks per task id, per block age (Count)
system.l2.tags.ageTaskId_1024::3                 3089                       # Occupied blocks per task id, per block age (Count)
system.l2.tags.ratioOccsTaskId::1024         0.100647                       # Ratio of occupied blocks and all blocks, per task id (Ratio)
system.l2.tags.tagAccesses                    4395498                       # Number of tag accesses (Count)
system.l2.tags.dataAccesses                   4395498                       # Number of data accesses (Count)
system.l2.tags.power_state.pwrStateResidencyTicks::UNDEFINED   9535100500                       # Cumulative time (in ticks) in various power states (Tick)
system.mem_ctrls.avgPriority_cpu.inst::samples       858.00                       # Average QoS priority value for accepted requests (Count)
system.mem_ctrls.avgPriority_cpu.data::samples      2432.00                       # Average QoS priority value for accepted requests (Count)
system.mem_ctrls.priorityMinLatency      0.000000018750                       # per QoS priority minimum request to response latency (Second)
system.mem_ctrls.priorityMaxLatency      0.000000564500                       # per QoS priority maximum request to response latency (Second)
[...]
system.mem_ctrls.dram.perBankWrBursts::10            0                       # Per bank write bursts (Count)
system.mem_ctrls.dram.perBankWrBursts::11            0                       # Per bank write bursts (Count)
system.mem_ctrls.dram.perBankWrBursts::12            0                       # Per bank write bursts (Count)
system.mem_ctrls.dram.perBankWrBursts::13            0                       # Per bank write bursts (Count)
system.mem_ctrls.dram.perBankWrBursts::14            0                       # Per bank write bursts (Count)
system.mem_ctrls.dram.perBankWrBursts::15            0                       # Per bank write bursts (Count)
system.mem_ctrls.dram.totQLat                43342250                       # Total ticks spent queuing (Tick)
system.mem_ctrls.dram.totBusLat              16450000                       # Total ticks spent in databus transfers (Tick)
system.mem_ctrls.dram.totMemAccLat          105029750                       # Total ticks spent from burst creation until serviced by the DRAM (Tick)
system.mem_ctrls.dram.avgQLat                13173.94                       # Average queueing delay per DRAM burst ((Tick/Count))
system.mem_ctrls.dram.avgBusLat               5000.00                       # Average bus latency per DRAM burst ((Tick/Count))
system.mem_ctrls.dram.avgMemAccLat           31923.94                       # Average memory access latency per DRAM burst ((Tick/Count))
system.mem_ctrls.dram.readRowHits                 958                       # Number of row buffer hits during reads (Count)
system.mem_ctrls.dram.writeRowHits                  0                       # Number of row buffer hits during writes (Count)
system.mem_ctrls.dram.readRowHitRate            29.12                       # Row buffer hit rate for reads (Ratio)
system.mem_ctrls.dram.writeRowHitRate             nan                       # Row buffer hit rate for writes (Ratio)
system.mem_ctrls.dram.bytesPerActivate::samples         2331                       # Bytes accessed per row activation (Byte)
system.mem_ctrls.dram.bytesPerActivate::mean    90.275418                       # Bytes accessed per row activation (Byte)
system.mem_ctrls.dram.bytesPerActivate::gmean    72.909890                       # Bytes accessed per row activation (Byte)
system.mem_ctrls.dram.bytesPerActivate::stdev   119.181924                       # Bytes accessed per row activation (Byte)
system.mem_ctrls.dram.bytesPerActivate::0-127         2117     90.82%     90.82% # Bytes accessed per row activation (Byte)
system.mem_ctrls.dram.bytesPerActivate::128-255          112      4.80%     95.62% # Bytes accessed per row activation (Byte)
system.mem_ctrls.dram.bytesPerActivate::256-383           26      1.12%     96.74% # Bytes accessed per row activation (Byte)
system.mem_ctrls.dram.bytesPerActivate::384-511           26      1.12%     97.85% # Bytes accessed per row activation (Byte)
system.mem_ctrls.dram.bytesPerActivate::512-639           12      0.51%     98.37% # Bytes accessed per row activation (Byte)
system.mem_ctrls.dram.bytesPerActivate::640-767            9      0.39%     98.76% # Bytes accessed per row activation (Byte)
system.mem_ctrls.dram.bytesPerActivate::768-895            6      0.26%     99.01% # Bytes accessed per row activation (Byte)
system.mem_ctrls.dram.bytesPerActivate::896-1023            6      0.26%     99.27% # Bytes accessed per row activation (Byte)
system.mem_ctrls.dram.bytesPerActivate::1024-1151           17      0.73%    100.00% # Bytes accessed per row activation (Byte)
system.mem_ctrls.dram.bytesPerActivate::total         2331                       # Bytes accessed per row activation (Byte)
system.mem_ctrls.dram.bytesRead                210560                       # Total bytes read (Byte)
system.mem_ctrls.dram.bytesWritten                  0                       # Total bytes written (Byte)
system.mem_ctrls.dram.avgRdBW               22.082620                       # Average DRAM read bandwidth in MiBytes/s ((Byte/Second))
system.mem_ctrls.dram.avgWrBW                       0                       # Average DRAM write bandwidth in MiBytes/s ((Byte/Second))
system.mem_ctrls.dram.peakBW                 12800.00                       # Theoretical peak bandwidth in MiByte/s ((Byte/Second))
system.mem_ctrls.dram.busUtil                    0.17                       # Data bus utilization in percentage (Ratio)
system.mem_ctrls.dram.busUtilRead                0.17                       # Data bus utilization in percentage for reads (Ratio)
system.mem_ctrls.dram.busUtilWrite               0.00                       # Data bus utilization in percentage for writes (Ratio)
system.mem_ctrls.dram.pageHitRate               29.12                       # Row buffer hit rate, read and write combined (Ratio)
system.mem_ctrls.dram.power_state.pwrStateResidencyTicks::UNDEFINED   9535100500                       # Cumulative time (in ticks) in various power states (Tick)
system.mem_ctrls.dram.rank0.actEnergy        10288740                       # Energy for activate commands per rank (pJ) (Joule)
system.mem_ctrls.dram.rank0.preEnergy         5464800                       # Energy for precharge commands per rank (pJ) (Joule)
system.mem_ctrls.dram.rank0.readEnergy       15115380                       # Energy for read commands per rank (pJ) (Joule)
system.mem_ctrls.dram.rank0.writeEnergy             0                       # Energy for write commands per rank (pJ) (Joule)
system.mem_ctrls.dram.rank0.refreshEnergy 752319360.000000                       # Energy for refresh commands per rank (pJ) (Joule)
system.mem_ctrls.dram.rank0.actBackEnergy   1734885630                       # Energy for active background per rank (pJ) (Joule)
system.mem_ctrls.dram.rank0.preBackEnergy   2200522560                       # Energy for precharge background per rank (pJ) (Joule)
system.mem_ctrls.dram.rank0.actPowerDownEnergy            0                       # Energy for active power-down per rank (pJ) (Joule)
system.mem_ctrls.dram.rank0.prePowerDownEnergy            0                       # Energy for precharge power-down per rank (pJ) (Joule)
system.mem_ctrls.dram.rank0.selfRefreshEnergy            0                       # Energy for self refresh per rank (pJ) (Joule)
system.mem_ctrls.dram.rank0.totalEnergy    4718596470                       # Total energy per rank (pJ) (Joule)
system.mem_ctrls.dram.rank0.averagePower   494.865940                       # Core power per rank (mW) (Watt)
system.mem_ctrls.dram.rank0.totalIdleTime            0                       # Total Idle time Per DRAM Rank (Tick)
system.mem_ctrls.dram.rank0.pwrStateTime::IDLE   5700534250                       # Time in different power states (Tick)
system.mem_ctrls.dram.rank0.pwrStateTime::REF    318240000                       # Time in different power states (Tick)
system.mem_ctrls.dram.rank0.pwrStateTime::SREF            0                       # Time in different power states (Tick)
system.mem_ctrls.dram.rank0.pwrStateTime::PRE_PDN            0                       # Time in different power states (Tick)
system.mem_ctrls.dram.rank0.pwrStateTime::ACT   3516326250                       # Time in different power states (Tick)
system.mem_ctrls.dram.rank0.pwrStateTime::ACT_PDN            0                       # Time in different power states (Tick)
system.mem_ctrls.dram.rank1.actEnergy         6361740                       # Energy for activate commands per rank (pJ) (Joule)
system.mem_ctrls.dram.rank1.preEnergy         3381345                       # Energy for precharge commands per rank (pJ) (Joule)
system.mem_ctrls.dram.rank1.readEnergy        8375220                       # Energy for read commands per rank (pJ) (Joule)
system.mem_ctrls.dram.rank1.writeEnergy             0                       # Energy for write commands per rank (pJ) (Joule)
system.mem_ctrls.dram.rank1.refreshEnergy 752319360.000000                       # Energy for refresh commands per rank (pJ) (Joule)
system.mem_ctrls.dram.rank1.actBackEnergy   1311606480                       # Energy for active background per rank (pJ) (Joule)
system.mem_ctrls.dram.rank1.preBackEnergy   2556968160                       # Energy for precharge background per rank (pJ) (Joule)
system.mem_ctrls.dram.rank1.actPowerDownEnergy            0                       # Energy for active power-down per rank (pJ) (Joule)
system.mem_ctrls.dram.rank1.prePowerDownEnergy            0                       # Energy for precharge power-down per rank (pJ) (Joule)
system.mem_ctrls.dram.rank1.selfRefreshEnergy            0                       # Energy for self refresh per rank (pJ) (Joule)
system.mem_ctrls.dram.rank1.totalEnergy    4639012305                       # Total energy per rank (pJ) (Joule)
system.mem_ctrls.dram.rank1.averagePower   486.519498                       # Core power per rank (mW) (Watt)
system.mem_ctrls.dram.rank1.totalIdleTime            0                       # Total Idle time Per DRAM Rank (Tick)
system.mem_ctrls.dram.rank1.pwrStateTime::IDLE   6633080500                       # Time in different power states (Tick)
system.mem_ctrls.dram.rank1.pwrStateTime::REF    318240000                       # Time in different power states (Tick)
system.mem_ctrls.dram.rank1.pwrStateTime::SREF            0                       # Time in different power states (Tick)
system.mem_ctrls.dram.rank1.pwrStateTime::PRE_PDN            0                       # Time in different power states (Tick)
system.mem_ctrls.dram.rank1.pwrStateTime::ACT   2583780000                       # Time in different power states (Tick)
system.mem_ctrls.dram.rank1.pwrStateTime::ACT_PDN            0                       # Time in different power states (Tick)
system.mem_ctrls.power_state.pwrStateResidencyTicks::UNDEFINED   9535100500                       # Cumulative time (in ticks) in various power states (Tick)
system.membus.transDist::ReadResp                1109                       # Transaction distribution (Count)
system.membus.transDist::ReadExReq               2181                       # Transaction distribution (Count)
system.membus.transDist::ReadExResp              2181                       # Transaction distribution (Count)
system.membus.transDist::ReadSharedReq           1109                       # Transaction distribution (Count)
system.membus.transDist::InvalidateReq              8                       # Transaction distribution (Count)
system.membus.pktCount_system.l2.mem_side_port::system.mem_ctrls.port         6588                       # Packet count per connected requestor and responder (Count)
system.membus.pktCount::total                    6588                       # Packet count per connected requestor and responder (Count)
system.membus.pktSize_system.l2.mem_side_port::system.mem_ctrls.port       210560                       # Cumulative packet size per connected requestor and responder (Byte)
system.membus.pktSize::total                   210560                       # Cumulative packet size per connected requestor and responder (Byte)
system.membus.snoops                                0                       # Total snoops (Count)
system.membus.snoopTraffic                          0                       # Total snoop traffic (Byte)
system.membus.snoopFanout::samples               3298                       # Request fanout histogram (Count)
system.membus.snoopFanout::mean                     0                       # Request fanout histogram (Count)
system.membus.snoopFanout::stdev                    0                       # Request fanout histogram (Count)
system.membus.snoopFanout::underflows               0      0.00%      0.00% # Request fanout histogram (Count)
system.membus.snoopFanout::0                     3298    100.00%    100.00% # Request fanout histogram (Count)
system.membus.snoopFanout::1                        0      0.00%    100.00% # Request fanout histogram (Count)
system.membus.snoopFanout::overflows                0      0.00%    100.00% # Request fanout histogram (Count)
system.membus.snoopFanout::min_value                0                       # Request fanout histogram (Count)
system.membus.snoopFanout::max_value                0                       # Request fanout histogram (Count)
system.membus.snoopFanout::total                 3298                       # Request fanout histogram (Count)
system.membus.power_state.pwrStateResidencyTicks::UNDEFINED   9535100500                       # Cumulative time (in ticks) in various power states (Tick)
system.membus.reqLayer0.occupancy             3793000                       # Layer occupancy (ticks) (Tick)
system.membus.reqLayer0.utilization               0.0                       # Layer utilization (Ratio)
system.membus.respLayer1.occupancy           17887000                       # Layer occupancy (ticks) (Tick)
system.membus.respLayer1.utilization              0.0                       # Layer utilization (Ratio)
system.membus.snoop_filter.totRequests           3298                       # Total number of requests made to the snoop filter. (Count)
system.membus.snoop_filter.hitSingleRequests            0                       # Number of requests hitting in the snoop filter with a single holder of the requested data. (Count)
system.membus.snoop_filter.hitMultiRequests            0                       # Number of requests hitting in the snoop filter with multiple (>1) holders of the requested data. (Count)
system.membus.snoop_filter.totSnoops                0                       # Total number of snoops made to the snoop filter. (Count)
system.membus.snoop_filter.hitSingleSnoops            0                       # Number of snoops hitting in the snoop filter with a single holder of the requested data. (Count)
system.membus.snoop_filter.hitMultiSnoops            0                       # Number of snoops hitting in the snoop filter with multiple (>1) holders of the requested data. (Count)
system.tol2bus.transDist::ReadResp             272927                       # Transaction distribution (Count)
system.tol2bus.transDist::WritebackDirty         1370                       # Transaction distribution (Count)
system.tol2bus.transDist::WritebackClean       272262                       # Transaction distribution (Count)
system.tol2bus.transDist::CleanEvict              241                       # Transaction distribution (Count)
system.tol2bus.transDist::ReadExReq              2218                       # Transaction distribution (Count)
system.tol2bus.transDist::ReadExResp             2218                       # Transaction distribution (Count)
system.tol2bus.transDist::ReadCleanReq         272518                       # Transaction distribution (Count)
system.tol2bus.transDist::ReadSharedReq           409                       # Transaction distribution (Count)
system.tol2bus.transDist::InvalidateReq             8                       # Transaction distribution (Count)
system.tol2bus.transDist::InvalidateResp            8                       # Transaction distribution (Count)
system.tol2bus.pktCount_system.cpu.icache.mem_side_port::system.l2.cpu_side_port       817298                       # Packet count per connected requestor and responder (Count)
system.tol2bus.pktCount_system.cpu.dcache.mem_side_port::system.l2.cpu_side_port         6881                       # Packet count per connected requestor and responder (Count)
system.tol2bus.pktCount::total                 824179                       # Packet count per connected requestor and responder (Count)
system.tol2bus.pktSize_system.cpu.icache.mem_side_port::system.l2.cpu_side_port     34865920                       # Cumulative packet size per connected requestor and responder (Byte)
system.tol2bus.pktSize_system.cpu.dcache.mem_side_port::system.l2.cpu_side_port       255808                       # Cumulative packet size per connected requestor and responder (Byte)
system.tol2bus.pktSize::total                35121728                       # Cumulative packet size per connected requestor and responder (Byte)
system.tol2bus.snoops                               0                       # Total snoops (Count)
system.tol2bus.snoopTraffic                         0                       # Total snoop traffic (Byte)
system.tol2bus.snoopFanout::samples            275153                       # Request fanout histogram (Count)
system.tol2bus.snoopFanout::mean             0.000004                       # Request fanout histogram (Count)
system.tol2bus.snoopFanout::stdev            0.001906                       # Request fanout histogram (Count)
system.tol2bus.snoopFanout::underflows              0      0.00%      0.00% # Request fanout histogram (Count)
system.tol2bus.snoopFanout::0                  275152    100.00%    100.00% # Request fanout histogram (Count)
system.tol2bus.snoopFanout::1                       1      0.00%    100.00% # Request fanout histogram (Count)
system.tol2bus.snoopFanout::2                       0      0.00%    100.00% # Request fanout histogram (Count)
system.tol2bus.snoopFanout::overflows               0      0.00%    100.00% # Request fanout histogram (Count)
system.tol2bus.snoopFanout::min_value               0                       # Request fanout histogram (Count)
system.tol2bus.snoopFanout::max_value               1                       # Request fanout histogram (Count)
system.tol2bus.snoopFanout::total              275153                       # Request fanout histogram (Count)
system.tol2bus.power_state.pwrStateResidencyTicks::UNDEFINED   9535100500                       # Cumulative time (in ticks) in various power states (Tick)
system.tol2bus.reqLayer0.occupancy          548145000                       # Layer occupancy (ticks) (Tick)
system.tol2bus.reqLayer0.utilization              0.1                       # Layer utilization (Ratio)
system.tol2bus.respLayer0.occupancy         408777000                       # Layer occupancy (ticks) (Tick)
system.tol2bus.respLayer0.utilization             0.0                       # Layer utilization (Ratio)
system.tol2bus.respLayer1.occupancy           3944500                       # Layer occupancy (ticks) (Tick)
system.tol2bus.respLayer1.utilization             0.0                       # Layer utilization (Ratio)
system.tol2bus.snoop_filter.totRequests        549026                       # Total number of requests made to the snoop filter. (Count)
system.tol2bus.snoop_filter.hitSingleRequests       273873                       # Number of requests hitting in the snoop filter with a single holder of the requested data. (Count)
system.tol2bus.snoop_filter.hitMultiRequests            1                       # Number of requests hitting in the snoop filter with multiple (>1) holders of the requested data. (Count)
system.tol2bus.snoop_filter.totSnoops               0                       # Total number of snoops made to the snoop filter. (Count)
system.tol2bus.snoop_filter.hitSingleSnoops            0                       # Number of snoops hitting in the snoop filter with a single holder of the requested data. (Count)
system.tol2bus.snoop_filter.hitMultiSnoops            0                       # Number of snoops hitting in the snoop filter with multiple (>1) holders of the requested data. (Count)
system.voltage_domain.voltage                       1                       # Voltage in Volts (Volt)
system.workload.inst.arm                            0                       # number of arm instructions executed (Count)
system.workload.inst.quiesce                        0                       # number of quiesce instructions executed (Count)
system.cpu.idleCycles                         4531367                       # Total number of cycles that the object has spent stopped (Unspecified)
system.cpu.tickCycles                        14538834                       # Number of cycles that the object actually ticked (Unspecified)

---------- End Simulation Statistics   ----------
