
---------- Begin Simulation Statistics ----------
simSeconds                                   0.001034                       # Number of seconds simulated (Second)
simTicks                                   1034147000                       # Number of ticks simulated (Tick)
finalTick                                  1034147000                       # Number of ticks from beginning of simulation (restored from checkpoints and never reset) (Tick)
simFreq                                  1000000000000                       # The number of ticks per simulated second ((Tick/Second))
hostSeconds                                      8.79                       # Real time elapsed on the host (Second)
hostTickRate                                117712150                       # The number of ticks simulated per host second (ticks/s) ((Tick/Second))
hostMemory                                    8725320                       # Number of bytes of host memory used (Byte)
simInsts                                      1000000                       # Number of instructions simulated (Count)
simOps                                        1111482                       # Number of ops (including micro ops) simulated (Count)
hostInstRate                                   113823                       # Simulator instruction rate (inst/s) ((Count/Second))
hostOpRate                                     126512                       # Simulator op (including micro ops) rate (op/s) ((Count/Second))
system.clk_domain.clock                          1000                       # Clock period in ticks (Tick)
system.cpu.numCycles                          2068294                       # Number of cpu cycles simulated (Cycle)
system.cpu.numWorkItemsStarted                      0                       # Number of work items this cpu started (Count)
system.cpu.numWorkItemsCompleted                    0                       # Number of work items this cpu completed (Count)
system.cpu.numInsts                           1000000                       # Number of instructions committed (Count)
system.cpu.numOps                             1111482                       # Number of ops (including micro ops) committed (Count)
system.cpu.numDiscardedOps                      11630                       # Number of ops (including micro ops) which were discarded before commit (Count)
system.cpu.numFetchSuspends                         0                       # Number of times Execute suspended instruction fetching (Count)
system.cpu.cpi                               2.068294                       # CPI: cycles per instruction ((Cycle/Count))
system.cpu.ipc                               0.483490                       # IPC: instructions per cycle ((Count/Cycle))
system.cpu.committedInstType_0::No_OpClass          184      0.02%      0.02% # Class of committed instruction (Count)
system.cpu.committedInstType_0::IntAlu         795563     71.58%     71.59% # Class of committed instruction (Count)
system.cpu.committedInstType_0::IntMult          3687      0.33%     71.93% # Class of committed instruction (Count)
system.cpu.committedInstType_0::IntDiv            910      0.08%     72.01% # Class of committed instruction (Count)
system.cpu.committedInstType_0::FloatAdd          437      0.04%     72.05% # Class of committed instruction (Count)
system.cpu.committedInstType_0::FloatCmp            6      0.00%     72.05% # Class of committed instruction (Count)
system.cpu.committedInstType_0::FloatCvt            0      0.00%     72.05% # Class of committed instruction (Count)
system.cpu.committedInstType_0::FloatMult           15      0.00%     72.05% # Class of committed instruction (Count)
system.cpu.committedInstType_0::FloatMultAcc           21      0.00%     72.05% # Class of committed instruction (Count)
system.cpu.committedInstType_0::FloatDiv            9      0.00%     72.05% # Class of committed instruction (Count)
system.cpu.committedInstType_0::FloatMisc         1625      0.15%     72.20% # Class of committed instruction (Count)
system.cpu.committedInstType_0::FloatSqrt            0      0.00%     72.20% # Class of committed instruction (Count)
system.cpu.committedInstType_0::SimdAdd           429      0.04%     72.24% # Class of committed instruction (Count)
system.cpu.committedInstType_0::SimdAddAcc            0      0.00%     72.24% # Class of committed instruction (Count)
system.cpu.committedInstType_0::SimdAlu           645      0.06%     72.29% # Class of committed instruction (Count)
system.cpu.committedInstType_0::SimdCmp           594      0.05%     72.35% # Class of committed instruction (Count)
system.cpu.committedInstType_0::SimdCvt             0      0.00%     72.35% # Class of committed instruction (Count)
system.cpu.committedInstType_0::SimdMisc          524      0.05%     72.39% # Class of committed instruction (Count)
system.cpu.committedInstType_0::SimdMult            0      0.00%     72.39% # Class of committed instruction (Count)
system.cpu.committedInstType_0::SimdMultAcc            0      0.00%     72.39% # Class of committed instruction (Count)
system.cpu.committedInstType_0::SimdShift            0      0.00%     72.39% # Class of committed instruction (Count)
system.cpu.committedInstType_0::SimdShiftAcc            0      0.00%     72.39% # Class of committed instruction (Count)
system.cpu.committedInstType_0::SimdDiv             0      0.00%     72.39% # Class of committed instruction (Count)
system.cpu.committedInstType_0::SimdSqrt            0      0.00%     72.39% # Class of committed instruction (Count)
system.cpu.committedInstType_0::SimdFloatAdd            0      0.00%     72.39% # Class of committed instruction (Count)
system.cpu.committedInstType_0::SimdFloatAlu            0      0.00%     72.39% # Class of committed instruction (Count)
system.cpu.committedInstType_0::SimdFloatCmp            0      0.00%     72.39% # Class of committed instruction (Count)
system.cpu.committedInstType_0::SimdFloatCvt            0      0.00%     72.39% # Class of committed instruction (Count)
system.cpu.committedInstType_0::SimdFloatDiv            0      0.00%     72.39% # Class of committed instruction (Count)
system.cpu.committedInstType_0::SimdFloatMisc            0      0.00%     72.39% # Class of committed instruction (Count)
system.cpu.committedInstType_0::SimdFloatMult            0      0.00%     72.39% # Class of committed instruction (Count)
system.cpu.committedInstType_0::SimdFloatMultAcc            0      0.00%     72.39% # Class of committed instruction (Count)
system.cpu.committedInstType_0::SimdFloatSqrt            0      0.00%     72.39% # Class of committed instruction (Count)
system.cpu.committedInstType_0::SimdReduceAdd            0      0.00%     72.39% # Class of committed instruction (Count)
system.cpu.committedInstType_0::SimdReduceAlu            0      0.00%     72.39% # Class of committed instruction (Count)
system.cpu.committedInstType_0::SimdReduceCmp            0      0.00%     72.39% # Class of committed instruction (Count)
system.cpu.committedInstType_0::SimdFloatReduceAdd            0      0.00%     72.39% # Class of committed instruction (Count)
system.cpu.committedInstType_0::SimdFloatReduceCmp            0      0.00%     72.39% # Class of committed instruction (Count)
system.cpu.committedInstType_0::SimdAes             0      0.00%     72.39% # Class of committed instruction (Count)
system.cpu.committedInstType_0::SimdAesMix            0      0.00%     72.39% # Class of committed instruction (Count)
system.cpu.committedInstType_0::SimdSha1Hash            0      0.00%     72.39% # Class of committed instruction (Count)
system.cpu.committedInstType_0::SimdSha1Hash2            0      0.00%     72.39% # Class of committed instruction (Count)
system.cpu.committedInstType_0::SimdSha256Hash            0      0.00%     72.39% # Class of committed instruction (Count)
system.cpu.committedInstType_0::SimdSha256Hash2            0      0.00%     72.39% # Class of committed instruction (Count)
system.cpu.committedInstType_0::SimdShaSigma2            0      0.00%     72.39% # Class of committed instruction (Count)
system.cpu.committedInstType_0::SimdShaSigma3            0      0.00%     72.39% # Class of committed instruction (Count)
system.cpu.committedInstType_0::SimdPredAlu            0      0.00%     72.39% # Class of committed instruction (Count)
system.cpu.committedInstType_0::MemRead        176568     15.89%     88.28% # Class of committed instruction (Count)
system.cpu.committedInstType_0::MemWrite       130265     11.72%    100.00% # Class of committed instruction (Count)
system.cpu.committedInstType_0::FloatMemRead            0      0.00%    100.00% # Class of committed instruction (Count)
system.cpu.committedInstType_0::FloatMemWrite            0      0.00%    100.00% # Class of committed instruction (Count)
system.cpu.committedInstType_0::IprAccess            0      0.00%    100.00% # Class of committed instruction (Count)
system.cpu.committedInstType_0::InstPrefetch            0      0.00%    100.00% # Class of committed instruction (Count)
system.cpu.committedInstType_0::total         1111482                       # Class of committed instruction (Count)
system.cpu.branchPred.lookups                  240217                       # Number of BP lookups (Count)
system.cpu.branchPred.condPredicted            185915                       # Number of conditional branches predicted (Count)
system.cpu.branchPred.condIncorrect              4261                       # Number of conditional branches incorrect (Count)
system.cpu.branchPred.BTBLookups               114542                       # Number of BTB lookups (Count)
system.cpu.branchPred.BTBHits                  110180                       # Number of BTB hits (Count)
system.cpu.branchPred.BTBHitRatio            0.961918                       # BTB Hit Ratio (Ratio)
system.cpu.branchPred.RASUsed                   12181                       # Number of times the RAS was used to get a target. (Count)
system.cpu.branchPred.RASIncorrect                 17                       # Number of incorrect RAS predictions. (Count)
system.cpu.branchPred.indirectLookups            3291                       # Number of indirect predictor lookups. (Count)
system.cpu.branchPred.indirectHits               2820                       # Number of indirect target hits. (Count)
system.cpu.branchPred.indirectMisses              471                       # Number of indirect misses. (Count)
system.cpu.branchPred.indirectMispredicted          111                       # Number of mispredicted indirect branches. (Count)
system.cpu.dcache.demandHits::cpu.data         304615                       # number of demand (read+write) hits (Count)
system.cpu.dcache.demandHits::total            304615                       # number of demand (read+write) hits (Count)
system.cpu.dcache.overallHits::cpu.data        305861                       # number of overall hits (Count)
system.cpu.dcache.overallHits::total           305861                       # number of overall hits (Count)
system.cpu.dcache.demandMisses::cpu.data         1005                       # number of demand (read+write) misses (Count)
system.cpu.dcache.demandMisses::total            1005                       # number of demand (read+write) misses (Count)
system.cpu.dcache.overallMisses::cpu.data         1008                       # number of overall misses (Count)
system.cpu.dcache.overallMisses::total           1008                       # number of overall misses (Count)
system.cpu.dcache.demandMissLatency::cpu.data     83999000                       # number of demand (read+write) miss ticks (Tick)
system.cpu.dcache.demandMissLatency::total     83999000                       # number of demand (read+write) miss ticks (Tick)
system.cpu.dcache.overallMissLatency::cpu.data     83999000                       # number of overall miss ticks (Tick)
system.cpu.dcache.overallMissLatency::total     83999000                       # number of overall miss ticks (Tick)
system.cpu.dcache.demandAccesses::cpu.data       305620                       # number of demand (read+write) accesses (Count)
system.cpu.dcache.demandAccesses::total        305620                       # number of demand (read+write) accesses (Count)
system.cpu.dcache.overallAccesses::cpu.data       306869                       # number of overall (read+write) accesses (Count)
system.cpu.dcache.overallAccesses::total       306869                       # number of overall (read+write) accesses (Count)
system.cpu.dcache.demandMissRate::cpu.data     0.003288                       # miss rate for demand accesses (Ratio)
system.cpu.dcache.demandMissRate::total      0.003288                       # miss rate for demand accesses (Ratio)
system.cpu.dcache.overallMissRate::cpu.data     0.003285                       # miss rate for overall accesses (Ratio)
system.cpu.dcache.overallMissRate::total     0.003285                       # miss rate for overall accesses (Ratio)
system.cpu.dcache.demandAvgMissLatency::cpu.data 83581.094527                       # average overall miss latency in ticks ((Tick/Count))
system.cpu.dcache.demandAvgMissLatency::total 83581.094527                       # average overall miss latency in ticks ((Tick/Count))
system.cpu.dcache.overallAvgMissLatency::cpu.data 83332.341270                       # average overall miss latency ((Tick/Count))
system.cpu.dcache.overallAvgMissLatency::total 83332.341270                       # average overall miss latency ((Tick/Count))
system.cpu.dcache.blockedCycles::no_mshrs            0                       # number of cycles access was blocked (Cycle)
system.cpu.dcache.blockedCycles::no_targets            0                       # number of cycles access was blocked (Cycle)
system.cpu.dcache.blockedCauses::no_mshrs            0                       # number of times access was blocked (Count)
system.cpu.dcache.blockedCauses::no_targets            0                       # number of times access was blocked (Count)
system.cpu.dcache.avgBlocked::no_mshrs            nan                       # average number of cycles each access was blocked ((Cycle/Count))
system.cpu.dcache.avgBlocked::no_targets          nan                       # average number of cycles each access was blocked ((Cycle/Count))
system.cpu.dcache.writebacks::writebacks           43                       # number of writebacks (Count)
system.cpu.dcache.writebacks::total                43                       # number of writebacks (Count)
system.cpu.dcache.demandMshrHits::cpu.data          373                       # number of demand (read+write) MSHR hits (Count)
system.cpu.dcache.demandMshrHits::total           373                       # number of demand (read+write) MSHR hits (Count)
system.cpu.dcache.overallMshrHits::cpu.data          373                       # number of overall MSHR hits (Count)
system.cpu.dcache.overallMshrHits::total          373                       # number of overall MSHR hits (Count)
system.cpu.dcache.demandMshrMisses::cpu.data          632                       # number of demand (read+write) MSHR misses (Count)
system.cpu.dcache.demandMshrMisses::total          632                       # number of demand (read+write) MSHR misses (Count)
system.cpu.dcache.overallMshrMisses::cpu.data          635                       # number of overall MSHR misses (Count)
system.cpu.dcache.overallMshrMisses::total          635                       # number of overall MSHR misses (Count)
system.cpu.dcache.demandMshrMissLatency::cpu.data     52745500                       # number of demand (read+write) MSHR miss ticks (Tick)
system.cpu.dcache.demandMshrMissLatency::total     52745500                       # number of demand (read+write) MSHR miss ticks (Tick)
system.cpu.dcache.overallMshrMissLatency::cpu.data     52987500                       # number of overall MSHR miss ticks (Tick)
system.cpu.dcache.overallMshrMissLatency::total     52987500                       # number of overall MSHR miss ticks (Tick)
system.cpu.dcache.demandMshrMissRate::cpu.data     0.002068                       # mshr miss ratio for demand accesses (Ratio)
system.cpu.dcache.demandMshrMissRate::total     0.002068                       # mshr miss ratio for demand accesses (Ratio)
system.cpu.dcache.overallMshrMissRate::cpu.data     0.002069                       # mshr miss ratio for overall accesses (Ratio)
system.cpu.dcache.overallMshrMissRate::total     0.002069                       # mshr miss ratio for overall accesses (Ratio)
system.cpu.dcache.demandAvgMshrMissLatency::cpu.data 83458.069620                       # average overall mshr miss latency ((Tick/Count))
system.cpu.dcache.demandAvgMshrMissLatency::total 83458.069620                       # average overall mshr miss latency ((Tick/Count))
system.cpu.dcache.overallAvgMshrMissLatency::cpu.data 83444.881890                       # average overall mshr miss latency ((Tick/Count))
system.cpu.dcache.overallAvgMshrMissLatency::total 83444.881890                       # average overall mshr miss latency ((Tick/Count))
system.cpu.dcache.replacements                     58                       # number of replacements (Count)
system.cpu.dcache.LoadLockedReq.hits::cpu.data          473                       # number of LoadLockedReq hits (Count)
system.cpu.dcache.LoadLockedReq.hits::total          473                       # number of LoadLockedReq hits (Count)
system.cpu.dcache.LoadLockedReq.accesses::cpu.data          473                       # number of LoadLockedReq accesses(hits+misses) (Count)
system.cpu.dcache.LoadLockedReq.accesses::total          473                       # number of LoadLockedReq accesses(hits+misses) (Count)
system.cpu.dcache.ReadReq.hits::cpu.data       175635                       # number of ReadReq hits (Count)
system.cpu.dcache.ReadReq.hits::total          175635                       # number of ReadReq hits (Count)
system.cpu.dcache.ReadReq.misses::cpu.data          254                       # number of ReadReq misses (Count)
system.cpu.dcache.ReadReq.misses::total           254                       # number of ReadReq misses (Count)
system.cpu.dcache.ReadReq.missLatency::cpu.data     22573500                       # number of ReadReq miss ticks (Tick)
system.cpu.dcache.ReadReq.missLatency::total     22573500                       # number of ReadReq miss ticks (Tick)
system.cpu.dcache.ReadReq.accesses::cpu.data       175889                       # number of ReadReq accesses(hits+misses) (Count)
system.cpu.dcache.ReadReq.accesses::total       175889                       # number of ReadReq accesses(hits+misses) (Count)
system.cpu.dcache.ReadReq.missRate::cpu.data     0.001444                       # miss rate for ReadReq accesses (Ratio)
system.cpu.dcache.ReadReq.missRate::total     0.001444                       # miss rate for ReadReq accesses (Ratio)
system.cpu.dcache.ReadReq.avgMissLatency::cpu.data 88872.047244                       # average ReadReq miss latency ((Tick/Count))
system.cpu.dcache.ReadReq.avgMissLatency::total 88872.047244                       # average ReadReq miss latency ((Tick/Count))
system.cpu.dcache.ReadReq.mshrHits::cpu.data           20                       # number of ReadReq MSHR hits (Count)
system.cpu.dcache.ReadReq.mshrHits::total           20                       # number of ReadReq MSHR hits (Count)
system.cpu.dcache.ReadReq.mshrMisses::cpu.data          234                       # number of ReadReq MSHR misses (Count)
system.cpu.dcache.ReadReq.mshrMisses::total          234                       # number of ReadReq MSHR misses (Count)
system.cpu.dcache.ReadReq.mshrMissLatency::cpu.data     20547000                       # number of ReadReq MSHR miss ticks (Tick)
system.cpu.dcache.ReadReq.mshrMissLatency::total     20547000                       # number of ReadReq MSHR miss ticks (Tick)
system.cpu.dcache.ReadReq.mshrMissRate::cpu.data     0.001330                       # mshr miss rate for ReadReq accesses (Ratio)
system.cpu.dcache.ReadReq.mshrMissRate::total     0.001330                       # mshr miss rate for ReadReq accesses (Ratio)
system.cpu.dcache.ReadReq.avgMshrMissLatency::cpu.data 87807.692308                       # average ReadReq mshr miss latency ((Tick/Count))
system.cpu.dcache.ReadReq.avgMshrMissLatency::total 87807.692308                       # average ReadReq mshr miss latency ((Tick/Count))
system.cpu.dcache.SoftPFReq.hits::cpu.data         1246                       # number of SoftPFReq hits (Count)
system.cpu.dcache.SoftPFReq.hits::total          1246                       # number of SoftPFReq hits (Count)
system.cpu.dcache.SoftPFReq.misses::cpu.data            3                       # number of SoftPFReq misses (Count)
system.cpu.dcache.SoftPFReq.misses::total            3                       # number of SoftPFReq misses (Count)
system.cpu.dcache.SoftPFReq.accesses::cpu.data         1249                       # number of SoftPFReq accesses(hits+misses) (Count)
system.cpu.dcache.SoftPFReq.accesses::total         1249                       # number of SoftPFReq accesses(hits+misses) (Count)
system.cpu.dcache.SoftPFReq.missRate::cpu.data     0.002402                       # miss rate for SoftPFReq accesses (Ratio)
system.cpu.dcache.SoftPFReq.missRate::total     0.002402                       # miss rate for SoftPFReq accesses (Ratio)
system.cpu.dcache.SoftPFReq.mshrMisses::cpu.data            3                       # number of SoftPFReq MSHR misses (Count)
system.cpu.dcache.SoftPFReq.mshrMisses::total            3                       # number of SoftPFReq MSHR misses (Count)
system.cpu.dcache.SoftPFReq.mshrMissLatency::cpu.data       242000                       # number of SoftPFReq MSHR miss ticks (Tick)
system.cpu.dcache.SoftPFReq.mshrMissLatency::total       242000                       # number of SoftPFReq MSHR miss ticks (Tick)
system.cpu.dcache.SoftPFReq.mshrMissRate::cpu.data     0.002402                       # mshr miss rate for SoftPFReq accesses (Ratio)
system.cpu.dcache.SoftPFReq.mshrMissRate::total     0.002402                       # mshr miss rate for SoftPFReq accesses (Ratio)
system.cpu.dcache.SoftPFReq.avgMshrMissLatency::cpu.data 80666.666667                       # average SoftPFReq mshr miss latency ((Tick/Count))
system.cpu.dcache.SoftPFReq.avgMshrMissLatency::total 80666.666667                       # average SoftPFReq mshr miss latency ((Tick/Count))
system.cpu.dcache.StoreCondReq.hits::cpu.data          473                       # number of StoreCondReq hits (Count)
system.cpu.dcache.StoreCondReq.hits::total          473                       # number of StoreCondReq hits (Count)
system.cpu.dcache.StoreCondReq.accesses::cpu.data          473                       # number of StoreCondReq accesses(hits+misses) (Count)
system.cpu.dcache.StoreCondReq.accesses::total          473                       # number of StoreCondReq accesses(hits+misses) (Count)
system.cpu.dcache.WriteLineReq.hits::cpu.data            7                       # number of WriteLineReq hits (Count)
system.cpu.dcache.WriteLineReq.hits::total            7                       # number of WriteLineReq hits (Count)
system.cpu.dcache.WriteLineReq.misses::cpu.data            8                       # number of WriteLineReq misses (Count)
system.cpu.dcache.WriteLineReq.misses::total            8                       # number of WriteLineReq misses (Count)
system.cpu.dcache.WriteLineReq.missLatency::cpu.data       254000                       # number of WriteLineReq miss ticks (Tick)
system.cpu.dcache.WriteLineReq.missLatency::total       254000                       # number of WriteLineReq miss ticks (Tick)
system.cpu.dcache.WriteLineReq.accesses::cpu.data           15                       # number of WriteLineReq accesses(hits+misses) (Count)
system.cpu.dcache.WriteLineReq.accesses::total           15                       # number of WriteLineReq accesses(hits+misses) (Count)
system.cpu.dcache.WriteLineReq.missRate::cpu.data     0.533333                       # miss rate for WriteLineReq accesses (Ratio)
system.cpu.dcache.WriteLineReq.missRate::total     0.533333                       # miss rate for WriteLineReq accesses (Ratio)
system.cpu.dcache.WriteLineReq.avgMissLatency::cpu.data        31750                       # average WriteLineReq miss latency ((Tick/Count))
system.cpu.dcache.WriteLineReq.avgMissLatency::total        31750                       # average WriteLineReq miss latency ((Tick/Count))
system.cpu.dcache.WriteLineReq.mshrMisses::cpu.data            8                       # number of WriteLineReq MSHR misses (Count)
system.cpu.dcache.WriteLineReq.mshrMisses::total            8                       # number of WriteLineReq MSHR misses (Count)
system.cpu.dcache.WriteLineReq.mshrMissLatency::cpu.data       246000                       # number of WriteLineReq MSHR miss ticks (Tick)
system.cpu.dcache.WriteLineReq.mshrMissLatency::total       246000                       # number of WriteLineReq MSHR miss ticks (Tick)
system.cpu.dcache.WriteLineReq.mshrMissRate::cpu.data     0.533333                       # mshr miss rate for WriteLineReq accesses (Ratio)
system.cpu.dcache.WriteLineReq.mshrMissRate::total     0.533333                       # mshr miss rate for WriteLineReq accesses (Ratio)
system.cpu.dcache.WriteLineReq.avgMshrMissLatency::cpu.data        30750                       # average WriteLineReq mshr miss latency ((Tick/Count))
system.cpu.dcache.WriteLineReq.avgMshrMissLatency::total        30750                       # average WriteLineReq mshr miss latency ((Tick/Count))
system.cpu.dcache.WriteReq.hits::cpu.data       128973                       # number of WriteReq hits (Count)
system.cpu.dcache.WriteReq.hits::total         128973                       # number of WriteReq hits (Count)
system.cpu.dcache.WriteReq.misses::cpu.data          743                       # number of WriteReq misses (Count)
system.cpu.dcache.WriteReq.misses::total          743                       # number of WriteReq misses (Count)
system.cpu.dcache.WriteReq.missLatency::cpu.data     61171500                       # number of WriteReq miss ticks (Tick)
system.cpu.dcache.WriteReq.missLatency::total     61171500                       # number of WriteReq miss ticks (Tick)
system.cpu.dcache.WriteReq.accesses::cpu.data       129716                       # number of WriteReq accesses(hits+misses) (Count)
system.cpu.dcache.WriteReq.accesses::total       129716                       # number of WriteReq accesses(hits+misses) (Count)
system.cpu.dcache.WriteReq.missRate::cpu.data     0.005728                       # miss rate for WriteReq accesses (Ratio)
system.cpu.dcache.WriteReq.missRate::total     0.005728                       # miss rate for WriteReq accesses (Ratio)
system.cpu.dcache.WriteReq.avgMissLatency::cpu.data 82330.417227                       # average WriteReq miss latency ((Tick/Count))
system.cpu.dcache.WriteReq.avgMissLatency::total 82330.417227                       # average WriteReq miss latency ((Tick/Count))
system.cpu.dcache.WriteReq.mshrHits::cpu.data          353                       # number of WriteReq MSHR hits (Count)
system.cpu.dcache.WriteReq.mshrHits::total          353                       # number of WriteReq MSHR hits (Count)
system.cpu.dcache.WriteReq.mshrMisses::cpu.data          390                       # number of WriteReq MSHR misses (Count)
system.cpu.dcache.WriteReq.mshrMisses::total          390                       # number of WriteReq MSHR misses (Count)
system.cpu.dcache.WriteReq.mshrMissLatency::cpu.data     31952500                       # number of WriteReq MSHR miss ticks (Tick)
system.cpu.dcache.WriteReq.mshrMissLatency::total     31952500                       # number of WriteReq MSHR miss ticks (Tick)
system.cpu.dcache.WriteReq.mshrMissRate::cpu.data     0.003007                       # mshr miss rate for WriteReq accesses (Ratio)
system.cpu.dcache.WriteReq.mshrMissRate::total     0.003007                       # mshr miss rate for WriteReq accesses (Ratio)
system.cpu.dcache.WriteReq.avgMshrMissLatency::cpu.data 81929.487179                       # average WriteReq mshr miss latency ((Tick/Count))
system.cpu.dcache.WriteReq.avgMshrMissLatency::total 81929.487179                       # average WriteReq mshr miss latency ((Tick/Count))
system.cpu.dcache.power_state.pwrStateResidencyTicks::UNDEFINED   1034147000                       # Cumulative time (in ticks) in various power states (Tick)
system.cpu.dcache.tags.tagsInUse           419.151274                       # Average ticks per tags in use ((Tick/Count))
system.cpu.dcache.tags.totalRefs               307442                       # Total number of references to valid blocks. (Count)
system.cpu.dcache.tags.sampledRefs                635                       # Sample count of references to valid blocks. (Count)
system.cpu.dcache.tags.avgRefs             484.160630                       # Average number of references to valid blocks. ((Count/Count))
system.cpu.dcache.tags.warmupTick              184500                       # The tick when the warmup percentage was hit. (Tick)
system.cpu.dcache.tags.occupancies::cpu.data   419.151274                       # Average occupied blocks per tick, per requestor ((Count/Tick))
system.cpu.dcache.tags.avgOccs::cpu.data     0.409327                       # Average percentage of cache occupancy ((Ratio/Tick))
system.cpu.dcache.tags.avgOccs::total        0.409327                       # Average percentage of cache occupancy ((Ratio/Tick))
system.cpu.dcache.tags.occupanciesTaskId::1024          577                       # Occupied blocks per task id (Count)
system.cpu.dcache.tags.ageTaskId_1024::0            3                       # Occupied blocks per task id, per block age (Count)
system.cpu.dcache.tags.ageTaskId_1024::1           30                       # Occupied blocks per task id, per block age (Count)
system.cpu.dcache.tags.ageTaskId_1024::2          397                       # Occupied blocks per task id, per block age (Count)
system.cpu.dcache.tags.ageTaskId_1024::3          147                       # Occupied blocks per task id, per block age (Count)
system.cpu.dcache.tags.ratioOccsTaskId::1024     0.563477                       # Ratio of occupied blocks and all blocks, per task id (Ratio)
system.cpu.dcache.tags.tagAccesses             616265                       # Number of tag accesses (Count)
system.cpu.dcache.tags.dataAccesses            616265                       # Number of data accesses (Count)
system.cpu.dcache.tags.power_state.pwrStateResidencyTicks::UNDEFINED   1034147000                       # Cumulative time (in ticks) in various power states (Tick)
system.cpu.fetch2.intInstructions              656111                       # Number of integer instructions successfully decoded (Count)
system.cpu.fetch2.fpInstructions                    0                       # Number of floating point instructions successfully decoded (Count)
system.cpu.fetch2.vecInstructions                5479                       # Number of SIMD instructions successfully decoded (Count)
system.cpu.fetch2.loadInstructions             146728                       # Number of memory load instructions successfully decoded (Count)
system.cpu.fetch2.storeInstructions             72218                       # Number of memory store instructions successfully decoded (Count)
system.cpu.fetch2.amoInstructions                   0                       # Number of memory atomic instructions successfully decoded (Count)
system.cpu.icache.demandHits::cpu.inst         331132                       # number of demand (read+write) hits (Count)
system.cpu.icache.demandHits::total            331132                       # number of demand (read+write) hits (Count)
system.cpu.icache.overallHits::cpu.inst        331132                       # number of overall hits (Count)
system.cpu.icache.overallHits::total           331132                       # number of overall hits (Count)
system.cpu.icache.demandMisses::cpu.inst        28473                       # number of demand (read+write) misses (Count)
system.cpu.icache.demandMisses::total           28473                       # number of demand (read+write) misses (Count)
system.cpu.icache.overallMisses::cpu.inst        28473                       # number of overall misses (Count)
system.cpu.icache.overallMisses::total          28473                       # number of overall misses (Count)
system.cpu.icache.demandMissLatency::cpu.inst    428032500                       # number of demand (read+write) miss ticks (Tick)
system.cpu.icache.demandMissLatency::total    428032500                       # number of demand (read+write) miss ticks (Tick)
system.cpu.icache.overallMissLatency::cpu.inst    428032500                       # number of overall miss ticks (Tick)
system.cpu.icache.overallMissLatency::total    428032500                       # number of overall miss ticks (Tick)
system.cpu.icache.demandAccesses::cpu.inst       359605                       # number of demand (read+write) accesses (Count)
system.cpu.icache.demandAccesses::total        359605                       # number of demand (read+write) accesses (Count)
system.cpu.icache.overallAccesses::cpu.inst       359605                       # number of overall (read+write) accesses (Count)
system.cpu.icache.overallAccesses::total       359605                       # number of overall (read+write) accesses (Count)
system.cpu.icache.demandMissRate::cpu.inst     0.079179                       # miss rate for demand accesses (Ratio)
system.cpu.icache.demandMissRate::total      0.079179                       # miss rate for demand accesses (Ratio)
system.cpu.icache.overallMissRate::cpu.inst     0.079179                       # miss rate for overall accesses (Ratio)
system.cpu.icache.overallMissRate::total     0.079179                       # miss rate for overall accesses (Ratio)
system.cpu.icache.demandAvgMissLatency::cpu.inst 15032.925930                       # average overall miss latency in ticks ((Tick/Count))
system.cpu.icache.demandAvgMissLatency::total 15032.925930                       # average overall miss latency in ticks ((Tick/Count))
system.cpu.icache.overallAvgMissLatency::cpu.inst 15032.925930                       # average overall miss latency ((Tick/Count))
system.cpu.icache.overallAvgMissLatency::total 15032.925930                       # average overall miss latency ((Tick/Count))
system.cpu.icache.blockedCycles::no_mshrs            0                       # number of cycles access was blocked (Cycle)
system.cpu.icache.blockedCycles::no_targets            0                       # number of cycles access was blocked (Cycle)
system.cpu.icache.blockedCauses::no_mshrs            0                       # number of times access was blocked (Count)
system.cpu.icache.blockedCauses::no_targets            0                       # number of times access was blocked (Count)
system.cpu.icache.avgBlocked::no_mshrs            nan                       # average number of cycles each access was blocked ((Cycle/Count))
system.cpu.icache.avgBlocked::no_targets          nan                       # average number of cycles each access was blocked ((Cycle/Count))
system.cpu.icache.writebacks::writebacks        28217                       # number of writebacks (Count)
system.cpu.icache.writebacks::total             28217                       # number of writebacks (Count)
system.cpu.icache.demandMshrMisses::cpu.inst        28473                       # number of demand (read+write) MSHR misses (Count)
system.cpu.icache.demandMshrMisses::total        28473                       # number of demand (read+write) MSHR misses (Count)
system.cpu.icache.overallMshrMisses::cpu.inst        28473                       # number of overall MSHR misses (Count)
system.cpu.icache.overallMshrMisses::total        28473                       # number of overall MSHR misses (Count)
system.cpu.icache.demandMshrMissLatency::cpu.inst    399559500                       # number of demand (read+write) MSHR miss ticks (Tick)
system.cpu.icache.demandMshrMissLatency::total    399559500                       # number of demand (read+write) MSHR miss ticks (Tick)
system.cpu.icache.overallMshrMissLatency::cpu.inst    399559500                       # number of overall MSHR miss ticks (Tick)
system.cpu.icache.overallMshrMissLatency::total    399559500                       # number of overall MSHR miss ticks (Tick)
system.cpu.icache.demandMshrMissRate::cpu.inst     0.079179                       # mshr miss ratio for demand accesses (Ratio)
system.cpu.icache.demandMshrMissRate::total     0.079179                       # mshr miss ratio for demand accesses (Ratio)
system.cpu.icache.overallMshrMissRate::cpu.inst     0.079179                       # mshr miss ratio for overall accesses (Ratio)
system.cpu.icache.overallMshrMissRate::total     0.079179                       # mshr miss ratio for overall accesses (Ratio)
system.cpu.icache.demandAvgMshrMissLatency::cpu.inst 14032.925930                       # average overall mshr miss latency ((Tick/Count))
system.cpu.icache.demandAvgMshrMissLatency::total 14032.925930                       # average overall mshr miss latency ((Tick/Count))
system.cpu.icache.overallAvgMshrMissLatency::cpu.inst 14032.925930                       # average overall mshr miss latency ((Tick/Count))
system.cpu.icache.overallAvgMshrMissLatency::total 14032.925930                       # average overall mshr miss latency ((Tick/Count))
system.cpu.icache.replacements                  28217                       # number of replacements (Count)
system.cpu.icache.ReadReq.hits::cpu.inst       331132                       # number of ReadReq hits (Count)
system.cpu.icache.ReadReq.hits::total          331132                       # number of ReadReq hits (Count)
system.cpu.icache.ReadReq.misses::cpu.inst        28473                       # number of ReadReq misses (Count)
system.cpu.icache.ReadReq.misses::total         28473                       # number of ReadReq misses (Count)
system.cpu.icache.ReadReq.missLatency::cpu.inst    428032500                       # number of ReadReq miss ticks (Tick)
system.cpu.icache.ReadReq.missLatency::total    428032500                       # number of ReadReq miss ticks (Tick)
system.cpu.icache.ReadReq.accesses::cpu.inst       359605                       # number of ReadReq accesses(hits+misses) (Count)
system.cpu.icache.ReadReq.accesses::total       359605                       # number of ReadReq accesses(hits+misses) (Count)
system.cpu.icache.ReadReq.missRate::cpu.inst     0.079179                       # miss rate for ReadReq accesses (Ratio)
system.cpu.icache.ReadReq.missRate::total     0.079179                       # miss rate for ReadReq accesses (Ratio)
system.cpu.icache.ReadReq.avgMissLatency::cpu.inst 15032.925930                       # average ReadReq miss latency ((Tick/Count))
system.cpu.icache.ReadReq.avgMissLatency::total 15032.925930                       # average ReadReq miss latency ((Tick/Count))
system.cpu.icache.ReadReq.mshrMisses::cpu.inst        28473                       # number of ReadReq MSHR misses (Count)
system.cpu.icache.ReadReq.mshrMisses::total        28473                       # number of ReadReq MSHR misses (Count)
system.cpu.icache.ReadReq.mshrMissLatency::cpu.inst    399559500                       # number of ReadReq MSHR miss ticks (Tick)
system.cpu.icache.ReadReq.mshrMissLatency::total    399559500                       # number of ReadReq MSHR miss ticks (Tick)
system.cpu.icache.ReadReq.mshrMissRate::cpu.inst     0.079179                       # mshr miss rate for ReadReq accesses (Ratio)
system.cpu.icache.ReadReq.mshrMissRate::total     0.079179                       # mshr miss rate for ReadReq accesses (Ratio)
system.cpu.icache.ReadReq.avgMshrMissLatency::cpu.inst 14032.925930                       # average ReadReq mshr miss latency ((Tick/Count))
system.cpu.icache.ReadReq.avgMshrMissLatency::total 14032.925930                       # average ReadReq mshr miss latency ((Tick/Count))
system.cpu.icache.power_state.pwrStateResidencyTicks::UNDEFINED   1034147000                       # Cumulative time (in ticks) in various power states (Tick)
system.cpu.icache.tags.tagsInUse           251.569270                       # Average ticks per tags in use ((Tick/Count))
system.cpu.icache.tags.totalRefs               359605                       # Total number of references to valid blocks. (Count)
system.cpu.icache.tags.sampledRefs              28473                       # Sample count of references to valid blocks. (Count)
system.cpu.icache.tags.avgRefs              12.629684                       # Average number of references to valid blocks. ((Count/Count))
system.cpu.icache.tags.warmupTick               87500                       # The tick when the warmup percentage was hit. (Tick)
system.cpu.icache.tags.occupancies::cpu.inst   251.569270                       # Average occupied blocks per tick, per requestor ((Count/Tick))
system.cpu.icache.tags.avgOccs::cpu.inst     0.982692                       # Average percentage of cache occupancy ((Ratio/Tick))
system.cpu.icache.tags.avgOccs::total        0.982692                       # Average percentage of cache occupancy ((Ratio/Tick))
system.cpu.icache.tags.occupanciesTaskId::1024          256                       # Occupied blocks per task id (Count)
system.cpu.icache.tags.ageTaskId_1024::0           53                       # Occupied blocks per task id, per block age (Count)
system.cpu.icache.tags.ageTaskId_1024::2          200                       # Occupied blocks per task id, per block age (Count)
system.cpu.icache.tags.ageTaskId_1024::3            3                       # Occupied blocks per task id, per block age (Count)
system.cpu.icache.tags.ratioOccsTaskId::1024            1                       # Ratio of occupied blocks and all blocks, per task id (Ratio)
system.cpu.icache.tags.tagAccesses             747683                       # Number of tag accesses (Count)
system.cpu.icache.tags.dataAccesses            747683                       # Number of data accesses (Count)
system.cpu.icache.tags.power_state.pwrStateResidencyTicks::UNDEFINED   1034147000                       # Cumulative time (in ticks) in various power states (Tick)
system.cpu.mmu.alignFaults                          0                       # Number of MMU faults due to alignment restrictions (Count)
system.cpu.mmu.prefetchFaults                       0                       # Number of MMU faults due to prefetch (Count)
system.cpu.mmu.domainFaults                         0                       # Number of MMU faults due to domain restrictions (Count)
system.cpu.mmu.permsFaults                          0                       # Number of MMU faults due to permissions restrictions (Count)
system.cpu.mmu.dtb.readHits                         0                       # Read hits (Count)
system.cpu.mmu.dtb.readMisses                       0                       # Read misses (Count)
system.cpu.mmu.dtb.writeHits                        0                       # Write hits (Count)
system.cpu.mmu.dtb.writeMisses                      0                       # Write misses (Count)
system.cpu.mmu.dtb.inserts                          0                       # Number of times an entry is inserted into the TLB (Count)
system.cpu.mmu.dtb.flushTlb                         0                       # Number of times complete TLB was flushed (Count)
system.cpu.mmu.dtb.flushTlbMva                      0                       # Number of times TLB was flushed by MVA (Count)
system.cpu.mmu.dtb.flushTlbMvaAsid                  0                       # Number of times TLB was flushed by MVA & ASID (Count)
system.cpu.mmu.dtb.flushTlbAsid                     0                       # Number of times TLB was flushed by ASID (Count)
system.cpu.mmu.dtb.flushedEntries                   0                       # Number of entries that have been flushed from TLB (Count)
system.cpu.mmu.dtb.readAccesses                     0                       # Read accesses (Count)
system.cpu.mmu.dtb.writeAccesses                    0                       # Write accesses (Count)
system.cpu.mmu.dtb.hits                             0                       # Total TLB (inst and data) hits (Count)
system.cpu.mmu.dtb.misses                           0                       # Total TLB (inst and data) misses (Count)
system.cpu.mmu.dtb.accesses                         0                       # Total TLB (inst and data) accesses (Count)
system.cpu.mmu.dtb_walker.walks                     0                       # Table walker walks requested (Count)
system.cpu.mmu.dtb_walker.requestOrigin_Requested::Data            0                       # Table walker requests started/completed, data/inst (Count)
system.cpu.mmu.dtb_walker.requestOrigin_Requested::Inst            0                       # Table walker requests started/completed, data/inst (Count)
system.cpu.mmu.dtb_walker.requestOrigin_Requested::total            0                       # Table walker requests started/completed, data/inst (Count)
system.cpu.mmu.dtb_walker.requestOrigin_Completed::Data            0                       # Table walker requests started/completed, data/inst (Count)
system.cpu.mmu.dtb_walker.requestOrigin_Completed::Inst            0                       # Table walker requests started/completed, data/inst (Count)
system.cpu.mmu.dtb_walker.requestOrigin_Completed::total            0                       # Table walker requests started/completed, data/inst (Count)
system.cpu.mmu.dtb_walker.requestOrigin::total            0                       # Table walker requests started/completed, data/inst (Count)
system.cpu.mmu.dtb_walker.power_state.pwrStateResidencyTicks::UNDEFINED   1034147000                       # Cumulative time (in ticks) in various power states (Tick)
system.cpu.mmu.itb.instHits                         0                       # Inst hits (Count)
system.cpu.mmu.itb.instMisses                       0                       # Inst misses (Count)
system.cpu.mmu.itb.inserts                          0                       # Number of times an entry is inserted into the TLB (Count)
system.cpu.mmu.itb.flushTlb                         0                       # Number of times complete TLB was flushed (Count)
system.cpu.mmu.itb.flushTlbMva                      0                       # Number of times TLB was flushed by MVA (Count)
system.cpu.mmu.itb.flushTlbMvaAsid                  0                       # Number of times TLB was flushed by MVA & ASID (Count)
system.cpu.mmu.itb.flushTlbAsid                     0                       # Number of times TLB was flushed by ASID (Count)
system.cpu.mmu.itb.flushedEntries                   0                       # Number of entries that have been flushed from TLB (Count)
system.cpu.mmu.itb.instAccesses                     0                       # Inst accesses (Count)
system.cpu.mmu.itb.hits                             0                       # Total TLB (inst and data) hits (Count)
system.cpu.mmu.itb.misses                           0                       # Total TLB (inst and data) misses (Count)
system.cpu.mmu.itb.accesses                         0                       # Total TLB (inst and data) accesses (Count)
system.cpu.mmu.itb_walker.walks                     0                       # Table walker walks requested (Count)
system.cpu.mmu.itb_walker.requestOrigin_Requested::Data            0                       # Table walker requests started/completed, data/inst (Count)
system.cpu.mmu.itb_walker.requestOrigin_Requested::Inst            0                       # Table walker requests started/completed, data/inst (Count)
system.cpu.mmu.itb_walker.requestOrigin_Requested::total            0                       # Table walker requests started/completed, data/inst (Count)
system.cpu.mmu.itb_walker.requestOrigin_Completed::Data            0                       # Table walker requests started/completed, data/inst (Count)
system.cpu.mmu.itb_walker.requestOrigin_Completed::Inst            0                       # Table walker requests started/completed, data/inst (Count)
system.cpu.mmu.itb_walker.requestOrigin_Completed::total            0                       # Table walker requests started/completed, data/inst (Count)
system.cpu.mmu.itb_walker.requestOrigin::total            0                       # Table walker requests started/completed, data/inst (Count)
system.cpu.mmu.itb_walker.power_state.pwrStateResidencyTicks::UNDEFINED   1034147000                       # Cumulative time (in ticks) in various power states (Tick)
system.cpu.mmu.l2_shared.instHits                   0                       # Inst hits (Count)
system.cpu.mmu.l2_shared.instMisses                 0                       # Inst misses (Count)
system.cpu.mmu.l2_shared.inserts                    0                       # Number of times an entry is inserted into the TLB (Count)
system.cpu.mmu.l2_shared.flushTlb                   0                       # Number of times complete TLB was flushed (Count)
system.cpu.mmu.l2_shared.flushTlbMva                0                       # Number of times TLB was flushed by MVA (Count)
system.cpu.mmu.l2_shared.flushTlbMvaAsid            0                       # Number of times TLB was flushed by MVA & ASID (Count)
system.cpu.mmu.l2_shared.flushTlbAsid               0                       # Number of times TLB was flushed by ASID (Count)
system.cpu.mmu.l2_shared.flushedEntries             0                       # Number of entries that have been flushed from TLB (Count)
system.cpu.mmu.l2_shared.instAccesses               0                       # Inst accesses (Count)
system.cpu.mmu.l2_shared.hits                       0                       # Total TLB (inst and data) hits (Count)
system.cpu.mmu.l2_shared.misses                     0                       # Total TLB (inst and data) misses (Count)
system.cpu.mmu.l2_shared.accesses                   0                       # Total TLB (inst and data) accesses (Count)
system.cpu.mmu.stage2_dtb.readHits                  0                       # Read hits (Count)
system.cpu.mmu.stage2_dtb.readMisses                0                       # Read misses (Count)
system.cpu.mmu.stage2_dtb.writeHits                 0                       # Write hits (Count)
system.cpu.mmu.stage2_dtb.writeMisses               0                       # Write misses (Count)
system.cpu.mmu.stage2_dtb.inserts                   0                       # Number of times an entry is inserted into the TLB (Count)
system.cpu.mmu.stage2_dtb.flushTlb                  0                       # Number of times complete TLB was flushed (Count)
system.cpu.mmu.stage2_dtb.flushTlbMva               0                       # Number of times TLB was flushed by MVA (Count)
system.cpu.mmu.stage2_dtb.flushTlbMvaAsid            0                       # Number of times TLB was flushed by MVA & ASID (Count)
system.cpu.mmu.stage2_dtb.flushTlbAsid              0                       # Number of times TLB was flushed by ASID (Count)
system.cpu.mmu.stage2_dtb.flushedEntries            0                       # Number of entries that have been flushed from TLB (Count)
system.cpu.mmu.stage2_dtb.readAccesses              0                       # Read accesses (Count)
system.cpu.mmu.stage2_dtb.writeAccesses             0                       # Write accesses (Count)
system.cpu.mmu.stage2_dtb.hits                      0                       # Total TLB (inst and data) hits (Count)
system.cpu.mmu.stage2_dtb.misses                    0                       # Total TLB (inst and data) misses (Count)
system.cpu.mmu.stage2_dtb.accesses                  0                       # Total TLB (inst and data) accesses (Count)
system.cpu.mmu.stage2_dtb_walker.walks              0                       # Table walker walks requested (Count)
system.cpu.mmu.stage2_dtb_walker.requestOrigin_Requested::Data            0                       # Table walker requests started/completed, data/inst (Count)
system.cpu.mmu.stage2_dtb_walker.requestOrigin_Requested::Inst            0                       # Table walker requests started/completed, data/inst (Count)
system.cpu.mmu.stage2_dtb_walker.requestOrigin_Requested::total            0                       # Table walker requests started/completed, data/inst (Count)
system.cpu.mmu.stage2_dtb_walker.requestOrigin_Completed::Data            0                       # Table walker requests started/completed, data/inst (Count)
system.cpu.mmu.stage2_dtb_walker.requestOrigin_Completed::Inst            0                       # Table walker requests started/completed, data/inst (Count)
system.cpu.mmu.stage2_dtb_walker.requestOrigin_Completed::total            0                       # Table walker requests started/completed, data/inst (Count)
system.cpu.mmu.stage2_dtb_walker.requestOrigin::total            0                       # Table walker requests started/completed, data/inst (Count)
system.cpu.mmu.stage2_dtb_walker.power_state.pwrStateResidencyTicks::UNDEFINED   1034147000                       # Cumulative time (in ticks) in various power states (Tick)
system.cpu.mmu.stage2_itb.instHits                  0                       # Inst hits (Count)
system.cpu.mmu.stage2_itb.instMisses                0                       # Inst misses (Count)
system.cpu.mmu.stage2_itb.inserts                   0                       # Number of times an entry is inserted into the TLB (Count)
system.cpu.mmu.stage2_itb.flushTlb                  0                       # Number of times complete TLB was flushed (Count)
system.cpu.mmu.stage2_itb.flushTlbMva               0                       # Number of times TLB was flushed by MVA (Count)
system.cpu.mmu.stage2_itb.flushTlbMvaAsid            0                       # Number of times TLB was flushed by MVA & ASID (Count)
system.cpu.mmu.stage2_itb.flushTlbAsid              0                       # Number of times TLB was flushed by ASID (Count)
system.cpu.mmu.stage2_itb.flushedEntries            0                       # Number of entries that have been flushed from TLB (Count)
system.cpu.mmu.stage2_itb.instAccesses              0                       # Inst accesses (Count)
system.cpu.mmu.stage2_itb.hits                      0                       # Total TLB (inst and data) hits (Count)
system.cpu.mmu.stage2_itb.misses                    0                       # Total TLB (inst and data) misses (Count)
system.cpu.mmu.stage2_itb.accesses                  0                       # Total TLB (inst and data) accesses (Count)
system.cpu.mmu.stage2_itb_walker.walks              0                       # Table walker walks requested (Count)
system.cpu.mmu.stage2_itb_walker.requestOrigin_Requested::Data            0                       # Table walker requests started/completed, data/inst (Count)
system.cpu.mmu.stage2_itb_walker.requestOrigin_Requested::Inst            0                       # Table walker requests started/completed, data/inst (Count)
system.cpu.mmu.stage2_itb_walker.requestOrigin_Requested::total            0                       # Table walker requests started/completed, data/inst (Count)
system.cpu.mmu.stage2_itb_walker.requestOrigin_Completed::Data            0                       # Table walker requests started/completed, data/inst (Count)
system.cpu.mmu.stage2_itb_walker.requestOrigin_Completed::Inst            0                       # Table walker requests started/completed, data/inst (Count)
system.cpu.mmu.stage2_itb_walker.requestOrigin_Completed::total            0                       # Table walker requests started/completed, data/inst (Count)
system.cpu.mmu.stage2_itb_walker.requestOrigin::total            0                       # Table walker requests started/completed, data/inst (Count)
system.cpu.mmu.stage2_itb_walker.power_state.pwrStateResidencyTicks::UNDEFINED   1034147000                       # Cumulative time (in ticks) in various power states (Tick)
system.cpu.power_state.pwrStateResidencyTicks::ON   1034147000                       # Cumulative time (in ticks) in various power states (Tick)
system.cpu.thread_0.numInsts                  1000000                       # Number of Instructions committed (Count)
system.cpu.thread_0.numOps                    1111482                       # Number of Ops committed (Count)
system.cpu.thread_0.numMemRefs                      0                       # Number of Memory References (Count)
system.cpu.workload.numSyscalls                    10                       # Number of system calls (Count)
system.cpu_clk_domain.clock                       500                       # Clock period in ticks (Tick)
system.cpu_voltage_domain.voltage                   1                       # Voltage in Volts (Volt)
system.l2.demandHits::cpu.inst                  27576                       # number of demand (read+write) hits (Count)
system.l2.demandHits::cpu.data                      4                       # number of demand (read+write) hits (Count)
system.l2.demandHits::total                     27580                       # number of demand (read+write) hits (Count)
system.l2.overallHits::cpu.inst                 27576                       # number of overall hits (Count)
system.l2.overallHits::cpu.data                     4                       # number of overall hits (Count)
system.l2.overallHits::total                    27580                       # number of overall hits (Count)
system.l2.demandMisses::cpu.inst                  897                       # number of demand (read+write) misses (Count)
system.l2.demandMisses::cpu.data                  623                       # number of demand (read+write) misses (Count)
system.l2.demandMisses::total                    1520                       # number of demand (read+write) misses (Count)
system.l2.overallMisses::cpu.inst                 897                       # number of overall misses (Count)
system.l2.overallMisses::cpu.data                 623                       # number of overall misses (Count)
system.l2.overallMisses::total                   1520                       # number of overall misses (Count)
system.l2.demandMissLatency::cpu.inst        67300500                       # number of demand (read+write) miss ticks (Tick)
system.l2.demandMissLatency::cpu.data        51756500                       # number of demand (read+write) miss ticks (Tick)
system.l2.demandMissLatency::total          119057000                       # number of demand (read+write) miss ticks (Tick)
system.l2.overallMissLatency::cpu.inst       67300500                       # number of overall miss ticks (Tick)
system.l2.overallMissLatency::cpu.data       51756500                       # number of overall miss ticks (Tick)
system.l2.overallMissLatency::total         119057000                       # number of overall miss ticks (Tick)
system.l2.demandAccesses::cpu.inst              28473                       # number of demand (read+write) accesses (Count)
system.l2.demandAccesses::cpu.data                627                       # number of demand (read+write) accesses (Count)
system.l2.demandAccesses::total                 29100                       # number of demand (read+write) accesses (Count)
system.l2.overallAccesses::cpu.inst             28473                       # number of overall (read+write) accesses (Count)
system.l2.overallAccesses::cpu.data               627                       # number of overall (read+write) accesses (Count)
system.l2.overallAccesses::total                29100                       # number of overall (read+write) accesses (Count)
system.l2.demandMissRate::cpu.inst           0.031504                       # miss rate for demand accesses (Ratio)
system.l2.demandMissRate::cpu.data           0.993620                       # miss rate for demand accesses (Ratio)
system.l2.demandMissRate::total              0.052234                       # miss rate for demand accesses (Ratio)
system.l2.overallMissRate::cpu.inst          0.031504                       # miss rate for overall accesses (Ratio)
system.l2.overallMissRate::cpu.data          0.993620                       # miss rate for overall accesses (Ratio)
system.l2.overallMissRate::total             0.052234                       # miss rate for overall accesses (Ratio)
system.l2.demandAvgMissLatency::cpu.inst 75028.428094                       # average overall miss latency in ticks ((Tick/Count))
system.l2.demandAvgMissLatency::cpu.data 83076.243981                       # average overall miss latency in ticks ((Tick/Count))
system.l2.demandAvgMissLatency::total    78326.973684                       # average overall miss latency in ticks ((Tick/Count))
system.l2.overallAvgMissLatency::cpu.inst 75028.428094                       # average overall miss latency ((Tick/Count))
system.l2.overallAvgMissLatency::cpu.data 83076.243981                       # average overall miss latency ((Tick/Count))
system.l2.overallAvgMissLatency::total   78326.973684                       # average overall miss latency ((Tick/Count))
system.l2.blockedCycles::no_mshrs                   0                       # number of cycles access was blocked (Cycle)
system.l2.blockedCycles::no_targets                 0                       # number of cycles access was blocked (Cycle)
system.l2.blockedCauses::no_mshrs                   0                       # number of times access was blocked (Count)
system.l2.blockedCauses::no_targets                 0                       # number of times access was blocked (Count)
system.l2.avgBlocked::no_mshrs                    nan                       # average number of cycles each access was blocked ((Cycle/Count))
system.l2.avgBlocked::no_targets                  nan                       # average number of cycles each access was blocked ((Cycle/Count))
system.l2.demandMshrMisses::cpu.inst              897                       # number of demand (read+write) MSHR misses (Count)
system.l2.demandMshrMisses::cpu.data              623                       # number of demand (read+write) MSHR misses (Count)
system.l2.demandMshrMisses::total                1520                       # number of demand (read+write) MSHR misses (Count)
system.l2.overallMshrMisses::cpu.inst             897                       # number of overall MSHR misses (Count)
system.l2.overallMshrMisses::cpu.data             623                       # number of overall MSHR misses (Count)
system.l2.overallMshrMisses::total               1520                       # number of overall MSHR misses (Count)
system.l2.demandMshrMissLatency::cpu.inst     58330500                       # number of demand (read+write) MSHR miss ticks (Tick)
system.l2.demandMshrMissLatency::cpu.data     45526500                       # number of demand (read+write) MSHR miss ticks (Tick)
system.l2.demandMshrMissLatency::total      103857000                       # number of demand (read+write) MSHR miss ticks (Tick)
system.l2.overallMshrMissLatency::cpu.inst     58330500                       # number of overall MSHR miss ticks (Tick)
system.l2.overallMshrMissLatency::cpu.data     45526500                       # number of overall MSHR miss ticks (Tick)
system.l2.overallMshrMissLatency::total     103857000                       # number of overall MSHR miss ticks (Tick)
system.l2.demandMshrMissRate::cpu.inst       0.031504                       # mshr miss ratio for demand accesses (Ratio)
system.l2.demandMshrMissRate::cpu.data       0.993620                       # mshr miss ratio for demand accesses (Ratio)
system.l2.demandMshrMissRate::total          0.052234                       # mshr miss ratio for demand accesses (Ratio)
system.l2.overallMshrMissRate::cpu.inst      0.031504                       # mshr miss ratio for overall accesses (Ratio)
system.l2.overallMshrMissRate::cpu.data      0.993620                       # mshr miss ratio for overall accesses (Ratio)
system.l2.overallMshrMissRate::total         0.052234                       # mshr miss ratio for overall accesses (Ratio)
system.l2.demandAvgMshrMissLatency::cpu.inst 65028.428094                       # average overall mshr miss latency ((Tick/Count))
system.l2.demandAvgMshrMissLatency::cpu.data 73076.243981                       # average overall mshr miss latency ((Tick/Count))
system.l2.demandAvgMshrMissLatency::total 68326.973684                       # average overall mshr miss latency ((Tick/Count))
system.l2.overallAvgMshrMissLatency::cpu.inst 65028.428094                       # average overall mshr miss latency ((Tick/Count))
system.l2.overallAvgMshrMissLatency::cpu.data 73076.243981                       # average overall mshr miss latency ((Tick/Count))
system.l2.overallAvgMshrMissLatency::total 68326.973684                       # average overall mshr miss latency ((Tick/Count))
system.l2.replacements                              0                       # number of replacements (Count)
system.l2.InvalidateReq.misses::cpu.data            8                       # number of InvalidateReq misses (Count)
system.l2.InvalidateReq.misses::total               8                       # number of InvalidateReq misses (Count)
system.l2.InvalidateReq.accesses::cpu.data            8                       # number of InvalidateReq accesses(hits+misses) (Count)
system.l2.InvalidateReq.accesses::total             8                       # number of InvalidateReq accesses(hits+misses) (Count)
system.l2.InvalidateReq.missRate::cpu.data            1                       # miss rate for InvalidateReq accesses (Ratio)
system.l2.InvalidateReq.missRate::total             1                       # miss rate for InvalidateReq accesses (Ratio)
system.l2.InvalidateReq.mshrMisses::cpu.data            8                       # number of InvalidateReq MSHR misses (Count)
system.l2.InvalidateReq.mshrMisses::total            8                       # number of InvalidateReq MSHR misses (Count)
system.l2.InvalidateReq.mshrMissLatency::cpu.data       154000                       # number of InvalidateReq MSHR miss ticks (Tick)
system.l2.InvalidateReq.mshrMissLatency::total       154000                       # number of InvalidateReq MSHR miss ticks (Tick)
system.l2.InvalidateReq.mshrMissRate::cpu.data            1                       # mshr miss rate for InvalidateReq accesses (Ratio)
system.l2.InvalidateReq.mshrMissRate::total            1                       # mshr miss rate for InvalidateReq accesses (Ratio)
system.l2.InvalidateReq.avgMshrMissLatency::cpu.data        19250                       # average InvalidateReq mshr miss latency ((Tick/Count))
system.l2.InvalidateReq.avgMshrMissLatency::total        19250                       # average InvalidateReq mshr miss latency ((Tick/Count))
system.l2.ReadCleanReq.hits::cpu.inst           27576                       # number of ReadCleanReq hits (Count)
system.l2.ReadCleanReq.hits::total              27576                       # number of ReadCleanReq hits (Count)
system.l2.ReadCleanReq.misses::cpu.inst           897                       # number of ReadCleanReq misses (Count)
system.l2.ReadCleanReq.misses::total              897                       # number of ReadCleanReq misses (Count)
system.l2.ReadCleanReq.missLatency::cpu.inst     67300500                       # number of ReadCleanReq miss ticks (Tick)
system.l2.ReadCleanReq.missLatency::total     67300500                       # number of ReadCleanReq miss ticks (Tick)
system.l2.ReadCleanReq.accesses::cpu.inst        28473                       # number of ReadCleanReq accesses(hits+misses) (Count)
system.l2.ReadCleanReq.accesses::total          28473                       # number of ReadCleanReq accesses(hits+misses) (Count)
system.l2.ReadCleanReq.missRate::cpu.inst     0.031504                       # miss rate for ReadCleanReq accesses (Ratio)
system.l2.ReadCleanReq.missRate::total       0.031504                       # miss rate for ReadCleanReq accesses (Ratio)
system.l2.ReadCleanReq.avgMissLatency::cpu.inst 75028.428094                       # average ReadCleanReq miss latency ((Tick/Count))
system.l2.ReadCleanReq.avgMissLatency::total 75028.428094                       # average ReadCleanReq miss latency ((Tick/Count))
system.l2.ReadCleanReq.mshrMisses::cpu.inst          897                       # number of ReadCleanReq MSHR misses (Count)
system.l2.ReadCleanReq.mshrMisses::total          897                       # number of ReadCleanReq MSHR misses (Count)
system.l2.ReadCleanReq.mshrMissLatency::cpu.inst     58330500                       # number of ReadCleanReq MSHR miss ticks (Tick)
system.l2.ReadCleanReq.mshrMissLatency::total     58330500                       # number of ReadCleanReq MSHR miss ticks (Tick)
system.l2.ReadCleanReq.mshrMissRate::cpu.inst     0.031504                       # mshr miss rate for ReadCleanReq accesses (Ratio)
system.l2.ReadCleanReq.mshrMissRate::total     0.031504                       # mshr miss rate for ReadCleanReq accesses (Ratio)
system.l2.ReadCleanReq.avgMshrMissLatency::cpu.inst 65028.428094                       # average ReadCleanReq mshr miss latency ((Tick/Count))
system.l2.ReadCleanReq.avgMshrMissLatency::total 65028.428094                       # average ReadCleanReq mshr miss latency ((Tick/Count))
system.l2.ReadExReq.hits::cpu.data                  4                       # number of ReadExReq hits (Count)
system.l2.ReadExReq.hits::total                     4                       # number of ReadExReq hits (Count)
system.l2.ReadExReq.misses::cpu.data              386                       # number of ReadExReq misses (Count)
system.l2.ReadExReq.misses::total                 386                       # number of ReadExReq misses (Count)
system.l2.ReadExReq.missLatency::cpu.data     31325000                       # number of ReadExReq miss ticks (Tick)
system.l2.ReadExReq.missLatency::total       31325000                       # number of ReadExReq miss ticks (Tick)
system.l2.ReadExReq.accesses::cpu.data            390                       # number of ReadExReq accesses(hits+misses) (Count)
system.l2.ReadExReq.accesses::total               390                       # number of ReadExReq accesses(hits+misses) (Count)
system.l2.ReadExReq.missRate::cpu.data       0.989744                       # miss rate for ReadExReq accesses (Ratio)
system.l2.ReadExReq.missRate::total          0.989744                       # miss rate for ReadExReq accesses (Ratio)
system.l2.ReadExReq.avgMissLatency::cpu.data 81152.849741                       # average ReadExReq miss latency ((Tick/Count))
system.l2.ReadExReq.avgMissLatency::total 81152.849741                       # average ReadExReq miss latency ((Tick/Count))
system.l2.ReadExReq.mshrMisses::cpu.data          386                       # number of ReadExReq MSHR misses (Count)
system.l2.ReadExReq.mshrMisses::total             386                       # number of ReadExReq MSHR misses (Count)
system.l2.ReadExReq.mshrMissLatency::cpu.data     27465000                       # number of ReadExReq MSHR miss ticks (Tick)
system.l2.ReadExReq.mshrMissLatency::total     27465000                       # number of ReadExReq MSHR miss ticks (Tick)
system.l2.ReadExReq.mshrMissRate::cpu.data     0.989744                       # mshr miss rate for ReadExReq accesses (Ratio)
system.l2.ReadExReq.mshrMissRate::total      0.989744                       # mshr miss rate for ReadExReq accesses (Ratio)
system.l2.ReadExReq.avgMshrMissLatency::cpu.data 71152.849741                       # average ReadExReq mshr miss latency ((Tick/Count))
system.l2.ReadExReq.avgMshrMissLatency::total 71152.849741                       # average ReadExReq mshr miss latency ((Tick/Count))
system.l2.ReadSharedReq.misses::cpu.data          237                       # number of ReadSharedReq misses (Count)
system.l2.ReadSharedReq.misses::total             237                       # number of ReadSharedReq misses (Count)
system.l2.ReadSharedReq.missLatency::cpu.data     20431500                       # number of ReadSharedReq miss ticks (Tick)
system.l2.ReadSharedReq.missLatency::total     20431500                       # number of ReadSharedReq miss ticks (Tick)
system.l2.ReadSharedReq.accesses::cpu.data          237                       # number of ReadSharedReq accesses(hits+misses) (Count)
system.l2.ReadSharedReq.accesses::total           237                       # number of ReadSharedReq accesses(hits+misses) (Count)
system.l2.ReadSharedReq.missRate::cpu.data            1                       # miss rate for ReadSharedReq accesses (Ratio)
system.l2.ReadSharedReq.missRate::total             1                       # miss rate for ReadSharedReq accesses (Ratio)
system.l2.ReadSharedReq.avgMissLatency::cpu.data 86208.860759                       # average ReadSharedReq miss latency ((Tick/Count))
system.l2.ReadSharedReq.avgMissLatency::total 86208.860759                       # average ReadSharedReq miss latency ((Tick/Count))
system.l2.ReadSharedReq.mshrMisses::cpu.data          237                       # number of ReadSharedReq MSHR misses (Count)
system.l2.ReadSharedReq.mshrMisses::total          237                       # number of ReadSharedReq MSHR misses (Count)
system.l2.ReadSharedReq.mshrMissLatency::cpu.data     18061500                       # number of ReadSharedReq MSHR miss ticks (Tick)
system.l2.ReadSharedReq.mshrMissLatency::total     18061500                       # number of ReadSharedReq MSHR miss ticks (Tick)
system.l2.ReadSharedReq.mshrMissRate::cpu.data            1                       # mshr miss rate for ReadSharedReq accesses (Ratio)
system.l2.ReadSharedReq.mshrMissRate::total            1                       # mshr miss rate for ReadSharedReq accesses (Ratio)
system.l2.ReadSharedReq.avgMshrMissLatency::cpu.data 76208.860759                       # average ReadSharedReq mshr miss latency ((Tick/Count))
system.l2.ReadSharedReq.avgMshrMissLatency::total 76208.860759                       # average ReadSharedReq mshr miss latency ((Tick/Count))
system.l2.WritebackClean.hits::writebacks        28216                       # number of WritebackClean hits (Count)
system.l2.WritebackClean.hits::total            28216                       # number of WritebackClean hits (Count)
system.l2.WritebackClean.accesses::writebacks        28216                       # number of WritebackClean accesses(hits+misses) (Count)
system.l2.WritebackClean.accesses::total        28216                       # number of WritebackClean accesses(hits+misses) (Count)
system.l2.WritebackDirty.hits::writebacks           43                       # number of WritebackDirty hits (Count)
system.l2.WritebackDirty.hits::total               43                       # number of WritebackDirty hits (Count)
system.l2.WritebackDirty.accesses::writebacks           43                       # number of WritebackDirty accesses(hits+misses) (Count)
system.l2.WritebackDirty.accesses::total           43                       # number of WritebackDirty accesses(hits+misses) (Count)
system.l2.power_state.pwrStateResidencyTicks::UNDEFINED   1034147000                       # Cumulative time (in ticks) in various power states (Tick)
system.l2.tags.tagsInUse                  1286.083823                       # Average ticks per tags in use ((Tick/Count))
system.l2.tags.totalRefs                        57374                       # Total number of references to valid blocks. (Count)
system.l2.tags.sampledRefs                       1520                       # Sample count of references to valid blocks. (Count)
system.l2.tags.avgRefs                      37.746053                       # Average number of references to valid blocks. ((Count/Count))
system.l2.tags.warmupTick                       77000                       # The tick when the warmup percentage was hit. (Tick)
system.l2.tags.occupancies::cpu.inst       852.522862                       # Average occupied blocks per tick, per requestor ((Count/Tick))
system.l2.tags.occupancies::cpu.data       433.560961                       # Average occupied blocks per tick, per requestor ((Count/Tick))
system.l2.tags.avgOccs::cpu.inst             0.026017                       # Average percentage of cache occupancy ((Ratio/Tick))
system.l2.tags.avgOccs::cpu.data             0.013231                       # Average percentage of cache occupancy ((Ratio/Tick))
system.l2.tags.avgOccs::total                0.039248                       # Average percentage of cache occupancy ((Ratio/Tick))
system.l2.tags.occupanciesTaskId::1024           1520                       # Occupied blocks per task id (Count)
system.l2.tags.ageTaskId_1024::0                    3                       # Occupied blocks per task id, per block age (Count)
system.l2.tags.ageTaskId_1024::1                   29                       # Occupied blocks per task id, per block age (Count)
system.l2.tags.ageTaskId_1024::2                 1017                       # Occupied blocks per task id, per block age (Count)
system.l2.tags.ageTaskId_1024::3                  471                       # Occupied blocks per task id, per block age (Count)
system.l2.tags.ratioOccsTaskId::1024         0.046387                       # Ratio of occupied blocks and all blocks, per task id (Ratio)
system.l2.tags.tagAccesses                     460576                       # Number of tag accesses (Count)
system.l2.tags.dataAccesses                    460576                       # Number of data accesses (Count)
system.l2.tags.power_state.pwrStateResidencyTicks::UNDEFINED   1034147000                       # Cumulative time (in ticks) in various power states (Tick)
system.mem_ctrls.avgPriority_cpu.inst::samples       897.00                       # Average QoS priority value for accepted requests (Count)
system.mem_ctrls.avgPriority_cpu.data::samples       623.00                       # Average QoS priority value for accepted requests (Count)
system.mem_ctrls.priorityMinLatency      0.000000018750                       # per QoS priority minimum request to response latency (Second)
system.mem_ctrls.priorityMaxLatency      0.000000566000                       # per QoS priority maximum request to response latency (Second)
system.mem_ctrls.numReadWriteTurnArounds            0                       # Number of turnarounds from READ to WRITE (Count)
system.mem_ctrls.numWriteReadTurnArounds            0                       # Number of turnarounds from WRITE to READ (Count)
system.mem_ctrls.numStayReadState                3304                       # Number of times bus staying in READ state (Count)
system.mem_ctrls.numStayWriteState                  0                       # Number of times bus staying in WRITE state (Count)
system.mem_ctrls.readReqs                        1520                       # Number of read requests accepted (Count)
system.mem_ctrls.writeReqs                          0                       # Number of write requests accepted (Count)
system.mem_ctrls.readBursts                      1520                       # Number of controller read bursts, including those serviced by the write queue (Count)
system.mem_ctrls.writeBursts                        0                       # Number of controller write bursts, including those merged in the write queue (Count)
system.mem_ctrls.servicedByWrQ                      0                       # Number of controller read bursts serviced by the write queue (Count)
system.mem_ctrls.mergedWrBursts                     0                       # Number of controller write bursts merged with an existing one (Count)
[...]
system.mem_ctrls.dram.perBankWrBursts::10            0                       # Per bank write bursts (Count)
system.mem_ctrls.dram.perBankWrBursts::11            0                       # Per bank write bursts (Count)
system.mem_ctrls.dram.perBankWrBursts::12            0                       # Per bank write bursts (Count)
system.mem_ctrls.dram.perBankWrBursts::13            0                       # Per bank write bursts (Count)
system.mem_ctrls.dram.perBankWrBursts::14            0                       # Per bank write bursts (Count)
system.mem_ctrls.dram.perBankWrBursts::15            0                       # Per bank write bursts (Count)
system.mem_ctrls.dram.totQLat                13002500                       # Total ticks spent queuing (Tick)
system.mem_ctrls.dram.totBusLat               7600000                       # Total ticks spent in databus transfers (Tick)
system.mem_ctrls.dram.totMemAccLat           41502500                       # Total ticks spent from burst creation until serviced by the DRAM (Tick)
system.mem_ctrls.dram.avgQLat                 8554.28                       # Average queueing delay per DRAM burst ((Tick/Count))
system.mem_ctrls.dram.avgBusLat               5000.00                       # Average bus latency per DRAM burst ((Tick/Count))
system.mem_ctrls.dram.avgMemAccLat           27304.28                       # Average memory access latency per DRAM burst ((Tick/Count))
system.mem_ctrls.dram.readRowHits                 973                       # Number of row buffer hits during reads (Count)
system.mem_ctrls.dram.writeRowHits                  0                       # Number of row buffer hits during writes (Count)
system.mem_ctrls.dram.readRowHitRate            64.01                       # Row buffer hit rate for reads (Ratio)
system.mem_ctrls.dram.writeRowHitRate             nan                       # Row buffer hit rate for writes (Ratio)
system.mem_ctrls.dram.bytesPerActivate::samples          546                       # Bytes accessed per row activation (Byte)
system.mem_ctrls.dram.bytesPerActivate::mean   178.051282                       # Bytes accessed per row activation (Byte)
system.mem_ctrls.dram.bytesPerActivate::gmean   111.103393                       # Bytes accessed per row activation (Byte)
system.mem_ctrls.dram.bytesPerActivate::stdev   228.399290                       # Bytes accessed per row activation (Byte)
system.mem_ctrls.dram.bytesPerActivate::0-127          346     63.37%     63.37% # Bytes accessed per row activation (Byte)
system.mem_ctrls.dram.bytesPerActivate::128-255           87     15.93%     79.30% # Bytes accessed per row activation (Byte)
system.mem_ctrls.dram.bytesPerActivate::256-383           34      6.23%     85.53% # Bytes accessed per row activation (Byte)
system.mem_ctrls.dram.bytesPerActivate::384-511           25      4.58%     90.11% # Bytes accessed per row activation (Byte)
system.mem_ctrls.dram.bytesPerActivate::512-639           15      2.75%     92.86% # Bytes accessed per row activation (Byte)
system.mem_ctrls.dram.bytesPerActivate::640-767           11      2.01%     94.87% # Bytes accessed per row activation (Byte)
system.mem_ctrls.dram.bytesPerActivate::768-895            7      1.28%     96.15% # Bytes accessed per row activation (Byte)
system.mem_ctrls.dram.bytesPerActivate::896-1023            3      0.55%     96.70% # Bytes accessed per row activation (Byte)
system.mem_ctrls.dram.bytesPerActivate::1024-1151           18      3.30%    100.00% # Bytes accessed per row activation (Byte)
system.mem_ctrls.dram.bytesPerActivate::total          546                       # Bytes accessed per row activation (Byte)
system.mem_ctrls.dram.bytesRead                 97280                       # Total bytes read (Byte)
system.mem_ctrls.dram.bytesWritten                  0                       # Total bytes written (Byte)
system.mem_ctrls.dram.avgRdBW               94.067865                       # Average DRAM read bandwidth in MiBytes/s ((Byte/Second))
system.mem_ctrls.dram.avgWrBW                       0                       # Average DRAM write bandwidth in MiBytes/s ((Byte/Second))
system.mem_ctrls.dram.peakBW                 12800.00                       # Theoretical peak bandwidth in MiByte/s ((Byte/Second))
system.mem_ctrls.dram.busUtil                    0.73                       # Data bus utilization in percentage (Ratio)
system.mem_ctrls.dram.busUtilRead                0.73                       # Data bus utilization in percentage for reads (Ratio)
system.mem_ctrls.dram.busUtilWrite               0.00                       # Data bus utilization in percentage for writes (Ratio)
system.mem_ctrls.dram.pageHitRate               64.01                       # Row buffer hit rate, read and write combined (Ratio)
system.mem_ctrls.dram.power_state.pwrStateResidencyTicks::UNDEFINED   1034147000                       # Cumulative time (in ticks) in various power states (Tick)
system.mem_ctrls.dram.rank0.actEnergy         1585080                       # Energy for activate commands per rank (pJ) (Joule)
system.mem_ctrls.dram.rank0.preEnergy          842490                       # Energy for precharge commands per rank (pJ) (Joule)
system.mem_ctrls.dram.rank0.readEnergy        6525960                       # Energy for read commands per rank (pJ) (Joule)
system.mem_ctrls.dram.rank0.writeEnergy             0                       # Energy for write commands per rank (pJ) (Joule)
system.mem_ctrls.dram.rank0.refreshEnergy 81132480.000000                       # Energy for refresh commands per rank (pJ) (Joule)
system.mem_ctrls.dram.rank0.actBackEnergy    206687130                       # Energy for active background per rank (pJ) (Joule)
system.mem_ctrls.dram.rank0.preBackEnergy    223060320                       # Energy for precharge background per rank (pJ) (Joule)
system.mem_ctrls.dram.rank0.actPowerDownEnergy            0                       # Energy for active power-down per rank (pJ) (Joule)
system.mem_ctrls.dram.rank0.prePowerDownEnergy            0                       # Energy for precharge power-down per rank (pJ) (Joule)
system.mem_ctrls.dram.rank0.selfRefreshEnergy            0                       # Energy for self refresh per rank (pJ) (Joule)
system.mem_ctrls.dram.rank0.totalEnergy     519833460                       # Total energy per rank (pJ) (Joule)
system.mem_ctrls.dram.rank0.averagePower   502.668828                       # Core power per rank (mW) (Watt)
system.mem_ctrls.dram.rank0.totalIdleTime            0                       # Total Idle time Per DRAM Rank (Tick)
system.mem_ctrls.dram.rank0.pwrStateTime::IDLE    577864500                       # Time in different power states (Tick)
system.mem_ctrls.dram.rank0.pwrStateTime::REF     34320000                       # Time in different power states (Tick)
system.mem_ctrls.dram.rank0.pwrStateTime::SREF            0                       # Time in different power states (Tick)
system.mem_ctrls.dram.rank0.pwrStateTime::PRE_PDN            0                       # Time in different power states (Tick)
system.mem_ctrls.dram.rank0.pwrStateTime::ACT    421962500                       # Time in different power states (Tick)
system.mem_ctrls.dram.rank0.pwrStateTime::ACT_PDN            0                       # Time in different power states (Tick)
system.mem_ctrls.dram.rank1.actEnergy         2320500                       # Energy for activate commands per rank (pJ) (Joule)
system.mem_ctrls.dram.rank1.preEnergy         1229580                       # Energy for precharge commands per rank (pJ) (Joule)
system.mem_ctrls.dram.rank1.readEnergy        4326840                       # Energy for read commands per rank (pJ) (Joule)
system.mem_ctrls.dram.rank1.writeEnergy             0                       # Energy for write commands per rank (pJ) (Joule)
system.mem_ctrls.dram.rank1.refreshEnergy 81132480.000000                       # Energy for refresh commands per rank (pJ) (Joule)
system.mem_ctrls.dram.rank1.actBackEnergy    315393540                       # Energy for active background per rank (pJ) (Joule)
system.mem_ctrls.dram.rank1.preBackEnergy    131518080                       # Energy for precharge background per rank (pJ) (Joule)
system.mem_ctrls.dram.rank1.actPowerDownEnergy            0                       # Energy for active power-down per rank (pJ) (Joule)
system.mem_ctrls.dram.rank1.prePowerDownEnergy            0                       # Energy for precharge power-down per rank (pJ) (Joule)
system.mem_ctrls.dram.rank1.selfRefreshEnergy            0                       # Energy for self refresh per rank (pJ) (Joule)
system.mem_ctrls.dram.rank1.totalEnergy     535921020                       # Total energy per rank (pJ) (Joule)
system.mem_ctrls.dram.rank1.averagePower   518.225185                       # Core power per rank (mW) (Watt)
system.mem_ctrls.dram.rank1.totalIdleTime            0                       # Total Idle time Per DRAM Rank (Tick)
system.mem_ctrls.dram.rank1.pwrStateTime::IDLE    338813750                       # Time in different power states (Tick)
system.mem_ctrls.dram.rank1.pwrStateTime::REF     34320000                       # Time in different power states (Tick)
system.mem_ctrls.dram.rank1.pwrStateTime::SREF            0                       # Time in different power states (Tick)
system.mem_ctrls.dram.rank1.pwrStateTime::PRE_PDN            0                       # Time in different power states (Tick)
system.mem_ctrls.dram.rank1.pwrStateTime::ACT    661013250                       # Time in different power states (Tick)
system.mem_ctrls.dram.rank1.pwrStateTime::ACT_PDN            0                       # Time in different power states (Tick)
system.mem_ctrls.power_state.pwrStateResidencyTicks::UNDEFINED   1034147000                       # Cumulative time (in ticks) in various power states (Tick)
system.membus.transDist::ReadResp                1134                       # Transaction distribution (Count)
system.membus.transDist::ReadExReq                386                       # Transaction distribution (Count)
system.membus.transDist::ReadExResp               386                       # Transaction distribution (Count)
system.membus.transDist::ReadSharedReq           1134                       # Transaction distribution (Count)
system.membus.transDist::InvalidateReq              8                       # Transaction distribution (Count)
system.membus.pktCount_system.l2.mem_side_port::system.mem_ctrls.port         3048                       # Packet count per connected requestor and responder (Count)
system.membus.pktCount::total                    3048                       # Packet count per connected requestor and responder (Count)
system.membus.pktSize_system.l2.mem_side_port::system.mem_ctrls.port        97280                       # Cumulative packet size per connected requestor and responder (Byte)
system.membus.pktSize::total                    97280                       # Cumulative packet size per connected requestor and responder (Byte)
system.membus.snoops                                0                       # Total snoops (Count)
system.membus.snoopTraffic                          0                       # Total snoop traffic (Byte)
system.membus.snoopFanout::samples               1528                       # Request fanout histogram (Count)
system.membus.snoopFanout::mean                     0                       # Request fanout histogram (Count)
system.membus.snoopFanout::stdev                    0                       # Request fanout histogram (Count)
system.membus.snoopFanout::underflows               0      0.00%      0.00% # Request fanout histogram (Count)
system.membus.snoopFanout::0                     1528    100.00%    100.00% # Request fanout histogram (Count)
system.membus.snoopFanout::1                        0      0.00%    100.00% # Request fanout histogram (Count)
system.membus.snoopFanout::overflows                0      0.00%    100.00% # Request fanout histogram (Count)
system.membus.snoopFanout::min_value                0                       # Request fanout histogram (Count)
system.membus.snoopFanout::max_value                0                       # Request fanout histogram (Count)
system.membus.snoopFanout::total                 1528                       # Request fanout histogram (Count)
system.membus.power_state.pwrStateResidencyTicks::UNDEFINED   1034147000                       # Cumulative time (in ticks) in various power states (Tick)
system.membus.reqLayer0.occupancy             1777000                       # Layer occupancy (ticks) (Tick)
system.membus.reqLayer0.utilization               0.0                       # Layer utilization (Ratio)
system.membus.respLayer1.occupancy            8129750                       # Layer occupancy (ticks) (Tick)
system.membus.respLayer1.utilization              0.0                       # Layer utilization (Ratio)
system.membus.snoop_filter.totRequests           1528                       # Total number of requests made to the snoop filter. (Count)
system.membus.snoop_filter.hitSingleRequests            0                       # Number of requests hitting in the snoop filter with a single holder of the requested data. (Count)
system.membus.snoop_filter.hitMultiRequests            0                       # Number of requests hitting in the snoop filter with multiple (>1) holders of the requested data. (Count)
system.membus.snoop_filter.totSnoops                0                       # Total number of snoops made to the snoop filter. (Count)
system.membus.snoop_filter.hitSingleSnoops            0                       # Number of snoops hitting in the snoop filter with a single holder of the requested data. (Count)
system.membus.snoop_filter.hitMultiSnoops            0                       # Number of snoops hitting in the snoop filter with multiple (>1) holders of the requested data. (Count)
system.tol2bus.transDist::ReadResp              28710                       # Transaction distribution (Count)
system.tol2bus.transDist::WritebackDirty           43                       # Transaction distribution (Count)
system.tol2bus.transDist::WritebackClean        28217                       # Transaction distribution (Count)
system.tol2bus.transDist::CleanEvict               15                       # Transaction distribution (Count)
system.tol2bus.transDist::ReadExReq               390                       # Transaction distribution (Count)
system.tol2bus.transDist::ReadExResp              390                       # Transaction distribution (Count)
system.tol2bus.transDist::ReadCleanReq          28473                       # Transaction distribution (Count)
system.tol2bus.transDist::ReadSharedReq           237                       # Transaction distribution (Count)
system.tol2bus.transDist::InvalidateReq             8                       # Transaction distribution (Count)
system.tol2bus.transDist::InvalidateResp            8                       # Transaction distribution (Count)
system.tol2bus.pktCount_system.cpu.icache.mem_side_port::system.l2.cpu_side_port        85163                       # Packet count per connected requestor and responder (Count)
system.tol2bus.pktCount_system.cpu.dcache.mem_side_port::system.l2.cpu_side_port         1328                       # Packet count per connected requestor and responder (Count)
system.tol2bus.pktCount::total                  86491                       # Packet count per connected requestor and responder (Count)
system.tol2bus.pktSize_system.cpu.icache.mem_side_port::system.l2.cpu_side_port      3628160                       # Cumulative packet size per connected requestor and responder (Byte)
system.tol2bus.pktSize_system.cpu.dcache.mem_side_port::system.l2.cpu_side_port        42880                       # Cumulative packet size per connected requestor and responder (Byte)
system.tol2bus.pktSize::total                 3671040                       # Cumulative packet size per connected requestor and responder (Byte)
system.tol2bus.snoops                               0                       # Total snoops (Count)
system.tol2bus.snoopTraffic                         0                       # Total snoop traffic (Byte)
system.tol2bus.snoopFanout::samples             29108                       # Request fanout histogram (Count)
system.tol2bus.snoopFanout::mean             0.000034                       # Request fanout histogram (Count)
system.tol2bus.snoopFanout::stdev            0.005861                       # Request fanout histogram (Count)
system.tol2bus.snoopFanout::underflows              0      0.00%      0.00% # Request fanout histogram (Count)
system.tol2bus.snoopFanout::0                   29107    100.00%    100.00% # Request fanout histogram (Count)
system.tol2bus.snoopFanout::1                       1      0.00%    100.00% # Request fanout histogram (Count)
system.tol2bus.snoopFanout::2                       0      0.00%    100.00% # Request fanout histogram (Count)
system.tol2bus.snoopFanout::overflows               0      0.00%    100.00% # Request fanout histogram (Count)
system.tol2bus.snoopFanout::min_value               0                       # Request fanout histogram (Count)
system.tol2bus.snoopFanout::max_value               1                       # Request fanout histogram (Count)
system.tol2bus.snoopFanout::total               29108                       # Request fanout histogram (Count)
system.tol2bus.power_state.pwrStateResidencyTicks::UNDEFINED   1034147000                       # Cumulative time (in ticks) in various power states (Tick)
system.tol2bus.reqLayer0.occupancy           56951500                       # Layer occupancy (ticks) (Tick)
system.tol2bus.reqLayer0.utilization              0.1                       # Layer utilization (Ratio)
system.tol2bus.respLayer0.occupancy          42709500                       # Layer occupancy (ticks) (Tick)
system.tol2bus.respLayer0.utilization             0.0                       # Layer utilization (Ratio)
system.tol2bus.respLayer1.occupancy            944999                       # Layer occupancy (ticks) (Tick)
system.tol2bus.respLayer1.utilization             0.0                       # Layer utilization (Ratio)
system.tol2bus.snoop_filter.totRequests         57383                       # Total number of requests made to the snoop filter. (Count)
system.tol2bus.snoop_filter.hitSingleRequests        28275                       # Number of requests hitting in the snoop filter with a single holder of the requested data. (Count)
system.tol2bus.snoop_filter.hitMultiRequests            1                       # Number of requests hitting in the snoop filter with multiple (>1) holders of the requested data. (Count)
system.tol2bus.snoop_filter.totSnoops               0                       # Total number of snoops made to the snoop filter. (Count)
system.tol2bus.snoop_filter.hitSingleSnoops            0                       # Number of snoops hitting in the snoop filter with a single holder of the requested data. (Count)
system.tol2bus.snoop_filter.hitMultiSnoops            0                       # Number of snoops hitting in the snoop filter with multiple (>1) holders of the requested data. (Count)
system.voltage_domain.voltage                       1                       # Voltage in Volts (Volt)
system.workload.inst.arm                            0                       # number of arm instructions executed (Count)
system.workload.inst.quiesce                        0                       # number of quiesce instructions executed (Count)
system.cpu.idleCycles                          268694                       # Total number of cycles that the object has spent stopped (Unspecified)
system.cpu.tickCycles                         1799600                       # Number of cycles that the object actually ticked (Unspecified)

---------- End Simulation Statistics   ----------
